<?xml version="1.0" encoding="UTF-8"?>
<types>
  <type id="a" priority="3" numLanes="3" speed="5"/>
</types>