<?xml version="1.0" encoding="UTF-8"?>

<!-- generated on 03/04/21 22:52:14 by SUMO netconvert Version 0.30.0
<?xml version="1.0" encoding="UTF-8"?>

<configuration xmlns:xsi="http://www.w3.org/2001/XMLSchema-instance" xsi:noNamespaceSchemaLocation="http://sumo.dlr.de/xsd/netconvertConfiguration.xsd">

    <input>
        <node-files value="benke.nod.xml"/>
        <edge-files value="benke.edg.xml"/>
        <type-files value="benke.typ.xml"/>
    </input>

    <output>
        <output-file value="benke.net.xml"/>
    </output>

    <processing>
        <no-turnarounds value="true"/>
    </processing>

</configuration>
-->

<net version="0.27" xmlns:xsi="http://www.w3.org/2001/XMLSchema-instance" xsi:noNamespaceSchemaLocation="http://sumo.dlr.de/xsd/net_file.xsd">

    <location netOffset="0.00,0.00" convBoundary="0.00,0.00,3000.00,0.00" origBoundary="0.00,0.00,3000.00,0.00" projParameter="!"/>

    <type id="a" priority="3" numLanes="3" speed="5.00"/>

    <edge id="D1" from="1" to="2" priority="3" type="a">
        <lane id="D1_0" index="0" speed="5.00" length="3000.00" shape="0.00,-8.25 3000.00,-8.25"/>
        <lane id="D1_1" index="1" speed="5.00" length="3000.00" shape="0.00,-4.95 3000.00,-4.95"/>
        <lane id="D1_2" index="2" speed="5.00" length="3000.00" shape="0.00,-1.65 3000.00,-1.65"/>
    </edge>

    <junction id="1" type="dead_end" x="0.00" y="0.00" incLanes="" intLanes="" shape="0.00,-0.05 0.00,-9.85"/>
    <junction id="2" type="dead_end" x="3000.00" y="0.00" incLanes="D1_0 D1_1 D1_2" intLanes="" shape="3000.00,-9.85 3000.00,-0.05"/>

</net>
