[General]
cmdenv-express-mode = true
cmdenv-autoflush = true
cmdenv-status-frequency = 1s
**.cmdenv-log-level = info

ned-path = .
image-path = ../../images #以上都是标准化的设置

network = Scenario100

##########################################################
#            Simulation parameters                       #
##########################################################
debug-on-errors = true
print-undisposed = true  #这俩也是标准化的设置

sim-time-limit = 600s  #仿真时间，200s结束

**.scalar-recording = true  #scalar型的实验结果
**.vector-recording = true  #记录的数据是根据仿真的时间记录的

*.playgroundSizeX = 500m
*.playgroundSizeY = 500m #xy大于设计的场景
*.playgroundSizeZ = 50m


##########################################################
# Annotation parameters                                  #
##########################################################
*.annotations.draw = true #标注是不是要画出来

##########################################################
# Obstacle parameters                                    #
##########################################################
*.obstacles.obstacles = xmldoc("config.xml", "//AnalogueModel[@type='SimpleObstacleShadowing']/obstacles") #可能会出问题

##########################################################
#            TraCIScenarioManager parameters             #
##########################################################
*.manager.updateInterval = 0.1s  #这里原来是1s
*.manager.host = "localhost"
*.manager.port = 9999
*.manager.autoShutdown = true
*.manager.launchConfig = xmldoc("gridtest_v100.launchd.xml") #换成自己配置的文件



##########################################################
#            11p specific parameters                     #
#                                                        #
#                    NIC-Settings                        #
##########################################################
*.connectionManager.sendDirect = true
*.connectionManager.maxInterfDist = 2600m
*.connectionManager.drawMaxIntfDist = true

*.**.nic.mac1609_4.useServiceChannel = false #标准  车联网设置的标准

*.**.nic.mac1609_4.txPower = 20mW
*.**.nic.mac1609_4.bitrate = 6Mbps
*.**.nic.phy80211p.minPowerLevel = -110dBm # *是车辆

*.**.nic.phy80211p.useNoiseFloor = true
*.**.nic.phy80211p.noiseFloor = -98dBm

*.**.nic.phy80211p.decider = xmldoc("config.xml")  
*.**.nic.phy80211p.analogueModels = xmldoc("config.xml")
*.**.nic.phy80211p.usePropagationDelay = true 

*.**.nic.phy80211p.antenna = xmldoc("antenna.xml", "/root/Antenna[@id='monopole']")
*.node[*].nic.phy80211p.antennaOffsetY = 0 m
*.node[*].nic.phy80211p.antennaOffsetZ = 1.895 m #标准

##########################################################
#                      App Layer                         #
##########################################################
*.node[*].applType = "GreenWave" #换成自个模块的名字
*.node[*].appl.headerLength = 0 bit #包裹的头
*.node[*].appl.beaconLengthBits = 451*8 bit #设置包裹大小
*.node[*].appl.dataOnSch = false  #数据切换
*.node[*].appl.beaconInterval = 100 ms  # becacon 发送周期
*.node[*].appl.sendBeacons = false #原基类里的变量
*.node[*].appl.avoidBeaconSynchronization = true
*.node[*].appl.sendBeaconsAtSpecificTime = true
*.node[*].appl.beaconStart = 500 s

##########################################################
#                      Mobility                          #
##########################################################
*.node[*].veinsmobility.x = 0
*.node[*].veinsmobility.y = 0
*.node[*].veinsmobility.z = 0
*.node[*].veinsmobility.setHostSpeed = false
*.node[*0].veinsmobility.accidentCount = 0
*.node[*0].veinsmobility.accidentStart = 700s  #大于仿真的时间
*.node[*0].veinsmobility.accidentDuration = 50s


#[Config Default]
#
#[Config WithBeaconing]
#*.node[*].appl.sendBeacons = true #原来是true
#
#[Config WithChannelSwitching]
#*.**.nic.mac1609_4.useServiceChannel = true
#*.node[*].appl.dataOnSch = true
