<?xml version="1.0" encoding="UTF-8"?>

<!-- generated on 01/16/21 17:09:34 by Eclipse SUMO netgenerate Version 1.6.0
<configuration xmlns:xsi="http://www.w3.org/2001/XMLSchema-instance" xsi:noNamespaceSchemaLocation="http://sumo.dlr.de/xsd/netgenerateConfiguration.xsd">

    <grid_network>
        <grid value="true"/>
        <grid.number value="4"/>
        <grid.length value="100"/>
    </grid_network>

    <output>
        <output-file value="gridtest.net.xml"/>
    </output>

    <building_defaults>
        <default-junction-type value="traffic_light"/>
    </building_defaults>

    <junctions>
        <no-internal-links value="true"/>
        <no-turnarounds value="true"/>
    </junctions>

</configuration>
-->

<net version="1.6" junctionCornerDetail="5" limitTurnSpeed="5.50" xmlns:xsi="http://www.w3.org/2001/XMLSchema-instance" xsi:noNamespaceSchemaLocation="http://sumo.dlr.de/xsd/net_file.xsd">

    <location netOffset="0.00,0.00" convBoundary="0.00,0.00,300.00,300.00" origBoundary="0.00,0.00,300.00,300.00" projParameter="!"/>

    <edge id="A0A1" from="A0" to="A1" priority="-1">
        <lane id="A0A1_0" index="0" speed="13.89" length="100.00" shape="1.60,3.20 1.60,92.80"/>
    </edge>
    <edge id="A0B0" from="A0" to="B0" priority="-1">
        <lane id="A0B0_0" index="0" speed="13.89" length="100.00" shape="3.20,-1.60 92.80,-1.60"/>
    </edge>
    <edge id="A1A0" from="A1" to="A0" priority="-1">
        <lane id="A1A0_0" index="0" speed="13.89" length="100.00" shape="-1.60,92.80 -1.60,3.20"/>
    </edge>
    <edge id="A1A2" from="A1" to="A2" priority="-1">
        <lane id="A1A2_0" index="0" speed="13.89" length="100.00" shape="1.60,107.20 1.60,192.80"/>
    </edge>
    <edge id="A1B1" from="A1" to="B1" priority="-1">
        <lane id="A1B1_0" index="0" speed="13.89" length="100.00" shape="7.20,98.40 92.80,98.40"/>
    </edge>
    <edge id="A2A1" from="A2" to="A1" priority="-1">
        <lane id="A2A1_0" index="0" speed="13.89" length="100.00" shape="-1.60,192.80 -1.60,107.20"/>
    </edge>
    <edge id="A2A3" from="A2" to="A3" priority="-1">
        <lane id="A2A3_0" index="0" speed="13.89" length="100.00" shape="1.60,207.20 1.60,296.80"/>
    </edge>
    <edge id="A2B2" from="A2" to="B2" priority="-1">
        <lane id="A2B2_0" index="0" speed="13.89" length="100.00" shape="7.20,198.40 92.80,198.40"/>
    </edge>
    <edge id="A3A2" from="A3" to="A2" priority="-1">
        <lane id="A3A2_0" index="0" speed="13.89" length="100.00" shape="-1.60,296.80 -1.60,207.20"/>
    </edge>
    <edge id="A3B3" from="A3" to="B3" priority="-1">
        <lane id="A3B3_0" index="0" speed="13.89" length="100.00" shape="3.20,298.40 92.80,298.40"/>
    </edge>
    <edge id="B0A0" from="B0" to="A0" priority="-1">
        <lane id="B0A0_0" index="0" speed="13.89" length="100.00" shape="92.80,1.60 3.20,1.60"/>
    </edge>
    <edge id="B0B1" from="B0" to="B1" priority="-1">
        <lane id="B0B1_0" index="0" speed="13.89" length="100.00" shape="101.60,7.20 101.60,92.80"/>
    </edge>
    <edge id="B0C0" from="B0" to="C0" priority="-1">
        <lane id="B0C0_0" index="0" speed="13.89" length="100.00" shape="107.20,-1.60 192.80,-1.60"/>
    </edge>
    <edge id="B1A1" from="B1" to="A1" priority="-1">
        <lane id="B1A1_0" index="0" speed="13.89" length="100.00" shape="92.80,101.60 7.20,101.60"/>
    </edge>
    <edge id="B1B0" from="B1" to="B0" priority="-1">
        <lane id="B1B0_0" index="0" speed="13.89" length="100.00" shape="98.40,92.80 98.40,7.20"/>
    </edge>
    <edge id="B1B2" from="B1" to="B2" priority="-1">
        <lane id="B1B2_0" index="0" speed="13.89" length="100.00" shape="101.60,107.20 101.60,192.80"/>
    </edge>
    <edge id="B1C1" from="B1" to="C1" priority="-1">
        <lane id="B1C1_0" index="0" speed="13.89" length="100.00" shape="107.20,98.40 192.80,98.40"/>
    </edge>
    <edge id="B2A2" from="B2" to="A2" priority="-1">
        <lane id="B2A2_0" index="0" speed="13.89" length="100.00" shape="92.80,201.60 7.20,201.60"/>
    </edge>
    <edge id="B2B1" from="B2" to="B1" priority="-1">
        <lane id="B2B1_0" index="0" speed="13.89" length="100.00" shape="98.40,192.80 98.40,107.20"/>
    </edge>
    <edge id="B2B3" from="B2" to="B3" priority="-1">
        <lane id="B2B3_0" index="0" speed="13.89" length="100.00" shape="101.60,207.20 101.60,292.80"/>
    </edge>
    <edge id="B2C2" from="B2" to="C2" priority="-1">
        <lane id="B2C2_0" index="0" speed="13.89" length="100.00" shape="107.20,198.40 192.80,198.40"/>
    </edge>
    <edge id="B3A3" from="B3" to="A3" priority="-1">
        <lane id="B3A3_0" index="0" speed="13.89" length="100.00" shape="92.80,301.60 3.20,301.60"/>
    </edge>
    <edge id="B3B2" from="B3" to="B2" priority="-1">
        <lane id="B3B2_0" index="0" speed="13.89" length="100.00" shape="98.40,292.80 98.40,207.20"/>
    </edge>
    <edge id="B3C3" from="B3" to="C3" priority="-1">
        <lane id="B3C3_0" index="0" speed="13.89" length="100.00" shape="107.20,298.40 192.80,298.40"/>
    </edge>
    <edge id="C0B0" from="C0" to="B0" priority="-1">
        <lane id="C0B0_0" index="0" speed="13.89" length="100.00" shape="192.80,1.60 107.20,1.60"/>
    </edge>
    <edge id="C0C1" from="C0" to="C1" priority="-1">
        <lane id="C0C1_0" index="0" speed="13.89" length="100.00" shape="201.60,7.20 201.60,92.80"/>
    </edge>
    <edge id="C0D0" from="C0" to="D0" priority="-1">
        <lane id="C0D0_0" index="0" speed="13.89" length="100.00" shape="207.20,-1.60 296.80,-1.60"/>
    </edge>
    <edge id="C1B1" from="C1" to="B1" priority="-1">
        <lane id="C1B1_0" index="0" speed="13.89" length="100.00" shape="192.80,101.60 107.20,101.60"/>
    </edge>
    <edge id="C1C0" from="C1" to="C0" priority="-1">
        <lane id="C1C0_0" index="0" speed="13.89" length="100.00" shape="198.40,92.80 198.40,7.20"/>
    </edge>
    <edge id="C1C2" from="C1" to="C2" priority="-1">
        <lane id="C1C2_0" index="0" speed="13.89" length="100.00" shape="201.60,107.20 201.60,192.80"/>
    </edge>
    <edge id="C1D1" from="C1" to="D1" priority="-1">
        <lane id="C1D1_0" index="0" speed="13.89" length="100.00" shape="207.20,98.40 292.80,98.40"/>
    </edge>
    <edge id="C2B2" from="C2" to="B2" priority="-1">
        <lane id="C2B2_0" index="0" speed="13.89" length="100.00" shape="192.80,201.60 107.20,201.60"/>
    </edge>
    <edge id="C2C1" from="C2" to="C1" priority="-1">
        <lane id="C2C1_0" index="0" speed="13.89" length="100.00" shape="198.40,192.80 198.40,107.20"/>
    </edge>
    <edge id="C2C3" from="C2" to="C3" priority="-1">
        <lane id="C2C3_0" index="0" speed="13.89" length="100.00" shape="201.60,207.20 201.60,292.80"/>
    </edge>
    <edge id="C2D2" from="C2" to="D2" priority="-1">
        <lane id="C2D2_0" index="0" speed="13.89" length="100.00" shape="207.20,198.40 292.80,198.40"/>
    </edge>
    <edge id="C3B3" from="C3" to="B3" priority="-1">
        <lane id="C3B3_0" index="0" speed="13.89" length="100.00" shape="192.80,301.60 107.20,301.60"/>
    </edge>
    <edge id="C3C2" from="C3" to="C2" priority="-1">
        <lane id="C3C2_0" index="0" speed="13.89" length="100.00" shape="198.40,292.80 198.40,207.20"/>
    </edge>
    <edge id="C3D3" from="C3" to="D3" priority="-1">
        <lane id="C3D3_0" index="0" speed="13.89" length="100.00" shape="207.20,298.40 296.80,298.40"/>
    </edge>
    <edge id="D0C0" from="D0" to="C0" priority="-1">
        <lane id="D0C0_0" index="0" speed="13.89" length="100.00" shape="296.80,1.60 207.20,1.60"/>
    </edge>
    <edge id="D0D1" from="D0" to="D1" priority="-1">
        <lane id="D0D1_0" index="0" speed="13.89" length="100.00" shape="301.60,3.20 301.60,92.80"/>
    </edge>
    <edge id="D1C1" from="D1" to="C1" priority="-1">
        <lane id="D1C1_0" index="0" speed="13.89" length="100.00" shape="292.80,101.60 207.20,101.60"/>
    </edge>
    <edge id="D1D0" from="D1" to="D0" priority="-1">
        <lane id="D1D0_0" index="0" speed="13.89" length="100.00" shape="298.40,92.80 298.40,3.20"/>
    </edge>
    <edge id="D1D2" from="D1" to="D2" priority="-1">
        <lane id="D1D2_0" index="0" speed="13.89" length="100.00" shape="301.60,107.20 301.60,192.80"/>
    </edge>
    <edge id="D2C2" from="D2" to="C2" priority="-1">
        <lane id="D2C2_0" index="0" speed="13.89" length="100.00" shape="292.80,201.60 207.20,201.60"/>
    </edge>
    <edge id="D2D1" from="D2" to="D1" priority="-1">
        <lane id="D2D1_0" index="0" speed="13.89" length="100.00" shape="298.40,192.80 298.40,107.20"/>
    </edge>
    <edge id="D2D3" from="D2" to="D3" priority="-1">
        <lane id="D2D3_0" index="0" speed="13.89" length="100.00" shape="301.60,207.20 301.60,296.80"/>
    </edge>
    <edge id="D3C3" from="D3" to="C3" priority="-1">
        <lane id="D3C3_0" index="0" speed="13.89" length="100.00" shape="296.80,301.60 207.20,301.60"/>
    </edge>
    <edge id="D3D2" from="D3" to="D2" priority="-1">
        <lane id="D3D2_0" index="0" speed="13.89" length="100.00" shape="298.40,296.80 298.40,207.20"/>
    </edge>

    <tlLogic id="A0" type="static" programID="0" offset="0">
        <phase duration="42" state="GG"/>
        <phase duration="3"  state="yy"/>
        <phase duration="42" state="GG"/>
        <phase duration="3"  state="yy"/>
    </tlLogic>
    <tlLogic id="A1" type="static" programID="0" offset="0">
        <phase duration="42" state="GgrrGG"/>
        <phase duration="3"  state="yyrryy"/>
        <phase duration="42" state="rrGGGr"/>
        <phase duration="3"  state="rryyyr"/>
    </tlLogic>
    <tlLogic id="A2" type="static" programID="0" offset="0">
        <phase duration="42" state="GgrrGG"/>
        <phase duration="3"  state="yyrryy"/>
        <phase duration="42" state="rrGGGr"/>
        <phase duration="3"  state="rryyyr"/>
    </tlLogic>
    <tlLogic id="A3" type="static" programID="0" offset="0">
        <phase duration="42" state="GG"/>
        <phase duration="3"  state="yy"/>
        <phase duration="42" state="GG"/>
        <phase duration="3"  state="yy"/>
    </tlLogic>
    <tlLogic id="B0" type="static" programID="0" offset="0">
        <phase duration="42" state="rrGGGg"/>
        <phase duration="3"  state="rryyyy"/>
        <phase duration="42" state="GGGrrr"/>
        <phase duration="3"  state="yyyrrr"/>
    </tlLogic>
    <tlLogic id="B1" type="static" programID="0" offset="0">
        <phase duration="42" state="GGgrrrGGgrrr"/>
        <phase duration="3"  state="yyyrrryyyrrr"/>
        <phase duration="42" state="rrrGGgrrrGGg"/>
        <phase duration="3"  state="rrryyyrrryyy"/>
    </tlLogic>
    <tlLogic id="B2" type="static" programID="0" offset="0">
        <phase duration="42" state="GGgrrrGGgrrr"/>
        <phase duration="3"  state="yyyrrryyyrrr"/>
        <phase duration="42" state="rrrGGgrrrGGg"/>
        <phase duration="3"  state="rrryyyrrryyy"/>
    </tlLogic>
    <tlLogic id="B3" type="static" programID="0" offset="0">
        <phase duration="42" state="GgrrGG"/>
        <phase duration="3"  state="yyrryy"/>
        <phase duration="42" state="rrGGGr"/>
        <phase duration="3"  state="rryyyr"/>
    </tlLogic>
    <tlLogic id="C0" type="static" programID="0" offset="0">
        <phase duration="42" state="rrGGGg"/>
        <phase duration="3"  state="rryyyy"/>
        <phase duration="42" state="GGGrrr"/>
        <phase duration="3"  state="yyyrrr"/>
    </tlLogic>
    <tlLogic id="C1" type="static" programID="0" offset="0">
        <phase duration="42" state="GGgrrrGGgrrr"/>
        <phase duration="3"  state="yyyrrryyyrrr"/>
        <phase duration="42" state="rrrGGgrrrGGg"/>
        <phase duration="3"  state="rrryyyrrryyy"/>
    </tlLogic>
    <tlLogic id="C2" type="static" programID="0" offset="0">
        <phase duration="42" state="GGgrrrGGgrrr"/>
        <phase duration="3"  state="yyyrrryyyrrr"/>
        <phase duration="42" state="rrrGGgrrrGGg"/>
        <phase duration="3"  state="rrryyyrrryyy"/>
    </tlLogic>
    <tlLogic id="C3" type="static" programID="0" offset="0">
        <phase duration="42" state="GgrrGG"/>
        <phase duration="3"  state="yyrryy"/>
        <phase duration="42" state="rrGGGr"/>
        <phase duration="3"  state="rryyyr"/>
    </tlLogic>
    <tlLogic id="D0" type="static" programID="0" offset="0">
        <phase duration="42" state="GG"/>
        <phase duration="3"  state="yy"/>
        <phase duration="42" state="GG"/>
        <phase duration="3"  state="yy"/>
    </tlLogic>
    <tlLogic id="D1" type="static" programID="0" offset="0">
        <phase duration="42" state="GGGgrr"/>
        <phase duration="3"  state="yyyyrr"/>
        <phase duration="42" state="GrrrGG"/>
        <phase duration="3"  state="yrrryy"/>
    </tlLogic>
    <tlLogic id="D2" type="static" programID="0" offset="0">
        <phase duration="42" state="GGGgrr"/>
        <phase duration="3"  state="yyyyrr"/>
        <phase duration="42" state="GrrrGG"/>
        <phase duration="3"  state="yrrryy"/>
    </tlLogic>
    <tlLogic id="D3" type="static" programID="0" offset="0">
        <phase duration="42" state="GG"/>
        <phase duration="3"  state="yy"/>
        <phase duration="42" state="GG"/>
        <phase duration="3"  state="yy"/>
    </tlLogic>

    <junction id="A0" type="traffic_light" x="0.00" y="0.00" incLanes="A1A0_0 B0A0_0" intLanes="" shape="-3.20,3.20 3.20,3.20 3.20,-3.20 -0.36,-2.49 -1.60,-1.60 -2.49,-0.36 -3.02,1.24">
        <request index="0" response="00" foes="00"/>
        <request index="1" response="00" foes="00"/>
    </junction>
    <junction id="A1" type="traffic_light" x="0.00" y="100.00" incLanes="A2A1_0 B1A1_0 A0A1_0" intLanes="" shape="-3.20,107.20 3.20,107.20 3.64,104.98 4.20,104.20 4.98,103.64 5.98,103.31 7.20,103.20 7.20,96.80 4.98,96.36 4.20,95.80 3.64,95.02 3.31,94.02 3.20,92.80 -3.20,92.80">
        <request index="0" response="000000" foes="001000"/>
        <request index="1" response="110000" foes="111000"/>
        <request index="2" response="100000" foes="100000"/>
        <request index="3" response="100011" foes="100011"/>
        <request index="4" response="000000" foes="000010"/>
        <request index="5" response="000000" foes="001110"/>
    </junction>
    <junction id="A2" type="traffic_light" x="0.00" y="200.00" incLanes="A3A2_0 B2A2_0 A1A2_0" intLanes="" shape="-3.20,207.20 3.20,207.20 3.64,204.98 4.20,204.20 4.98,203.64 5.98,203.31 7.20,203.20 7.20,196.80 4.98,196.36 4.20,195.80 3.64,195.02 3.31,194.02 3.20,192.80 -3.20,192.80">
        <request index="0" response="000000" foes="001000"/>
        <request index="1" response="110000" foes="111000"/>
        <request index="2" response="100000" foes="100000"/>
        <request index="3" response="100011" foes="100011"/>
        <request index="4" response="000000" foes="000010"/>
        <request index="5" response="000000" foes="001110"/>
    </junction>
    <junction id="A3" type="traffic_light" x="0.00" y="300.00" incLanes="B3A3_0 A2A3_0" intLanes="" shape="3.20,303.20 3.20,296.80 -3.20,296.80 -2.49,300.36 -1.60,301.60 -0.36,302.49 1.24,303.02">
        <request index="0" response="00" foes="00"/>
        <request index="1" response="00" foes="00"/>
    </junction>
    <junction id="B0" type="traffic_light" x="100.00" y="0.00" incLanes="B1B0_0 C0B0_0 A0B0_0" intLanes="" shape="96.80,7.20 103.20,7.20 103.64,4.98 104.20,4.20 104.98,3.64 105.98,3.31 107.20,3.20 107.20,-3.20 92.80,-3.20 92.80,3.20 95.02,3.64 95.80,4.20 96.36,4.98 96.69,5.98">
        <request index="0" response="001000" foes="001000"/>
        <request index="1" response="111000" foes="111000"/>
        <request index="2" response="000000" foes="100000"/>
        <request index="3" response="000000" foes="100011"/>
        <request index="4" response="000000" foes="000010"/>
        <request index="5" response="001100" foes="001110"/>
    </junction>
    <junction id="B1" type="traffic_light" x="100.00" y="100.00" incLanes="B2B1_0 C1B1_0 B0B1_0 A1B1_0" intLanes="" shape="96.80,107.20 103.20,107.20 103.64,104.98 104.20,104.20 104.98,103.64 105.98,103.31 107.20,103.20 107.20,96.80 104.98,96.36 104.20,95.80 103.64,95.02 103.31,94.02 103.20,92.80 96.80,92.80 96.36,95.02 95.80,95.80 95.02,96.36 94.02,96.69 92.80,96.80 92.80,103.20 95.02,103.64 95.80,104.20 96.36,104.98 96.69,105.98">
        <request index="0"  response="000000000000" foes="000100010000"/>
        <request index="1"  response="000000000000" foes="111100110000"/>
        <request index="2"  response="000011000000" foes="110011110000"/>
        <request index="3"  response="000010000000" foes="100010000000"/>
        <request index="4"  response="000110000111" foes="100110000111"/>
        <request index="5"  response="011110000110" foes="011110000110"/>
        <request index="6"  response="000000000000" foes="010000000100"/>
        <request index="7"  response="000000000000" foes="110000111100"/>
        <request index="8"  response="000000000011" foes="110000110011"/>
        <request index="9"  response="000000000010" foes="000000100010"/>
        <request index="10" response="000111000110" foes="000111100110"/>
        <request index="11" response="000110011110" foes="000110011110"/>
    </junction>
    <junction id="B2" type="traffic_light" x="100.00" y="200.00" incLanes="B3B2_0 C2B2_0 B1B2_0 A2B2_0" intLanes="" shape="96.80,207.20 103.20,207.20 103.64,204.98 104.20,204.20 104.98,203.64 105.98,203.31 107.20,203.20 107.20,196.80 104.98,196.36 104.20,195.80 103.64,195.02 103.31,194.02 103.20,192.80 96.80,192.80 96.36,195.02 95.80,195.80 95.02,196.36 94.02,196.69 92.80,196.80 92.80,203.20 95.02,203.64 95.80,204.20 96.36,204.98 96.69,205.98">
        <request index="0"  response="000000000000" foes="000100010000"/>
        <request index="1"  response="000000000000" foes="111100110000"/>
        <request index="2"  response="000011000000" foes="110011110000"/>
        <request index="3"  response="000010000000" foes="100010000000"/>
        <request index="4"  response="000110000111" foes="100110000111"/>
        <request index="5"  response="011110000110" foes="011110000110"/>
        <request index="6"  response="000000000000" foes="010000000100"/>
        <request index="7"  response="000000000000" foes="110000111100"/>
        <request index="8"  response="000000000011" foes="110000110011"/>
        <request index="9"  response="000000000010" foes="000000100010"/>
        <request index="10" response="000111000110" foes="000111100110"/>
        <request index="11" response="000110011110" foes="000110011110"/>
    </junction>
    <junction id="B3" type="traffic_light" x="100.00" y="300.00" incLanes="C3B3_0 B2B3_0 A3B3_0" intLanes="" shape="107.20,303.20 107.20,296.80 104.98,296.36 104.20,295.80 103.64,295.02 103.31,294.02 103.20,292.80 96.80,292.80 96.36,295.02 95.80,295.80 95.02,296.36 94.02,296.69 92.80,296.80 92.80,303.20">
        <request index="0" response="000000" foes="001000"/>
        <request index="1" response="110000" foes="111000"/>
        <request index="2" response="100000" foes="100000"/>
        <request index="3" response="100011" foes="100011"/>
        <request index="4" response="000000" foes="000010"/>
        <request index="5" response="000000" foes="001110"/>
    </junction>
    <junction id="C0" type="traffic_light" x="200.00" y="0.00" incLanes="C1C0_0 D0C0_0 B0C0_0" intLanes="" shape="196.80,7.20 203.20,7.20 203.64,4.98 204.20,4.20 204.98,3.64 205.98,3.31 207.20,3.20 207.20,-3.20 192.80,-3.20 192.80,3.20 195.02,3.64 195.80,4.20 196.36,4.98 196.69,5.98">
        <request index="0" response="001000" foes="001000"/>
        <request index="1" response="111000" foes="111000"/>
        <request index="2" response="000000" foes="100000"/>
        <request index="3" response="000000" foes="100011"/>
        <request index="4" response="000000" foes="000010"/>
        <request index="5" response="001100" foes="001110"/>
    </junction>
    <junction id="C1" type="traffic_light" x="200.00" y="100.00" incLanes="C2C1_0 D1C1_0 C0C1_0 B1C1_0" intLanes="" shape="196.80,107.20 203.20,107.20 203.64,104.98 204.20,104.20 204.98,103.64 205.98,103.31 207.20,103.20 207.20,96.80 204.98,96.36 204.20,95.80 203.64,95.02 203.31,94.02 203.20,92.80 196.80,92.80 196.36,95.02 195.80,95.80 195.02,96.36 194.02,96.69 192.80,96.80 192.80,103.20 195.02,103.64 195.80,104.20 196.36,104.98 196.69,105.98">
        <request index="0"  response="000000000000" foes="000100010000"/>
        <request index="1"  response="000000000000" foes="111100110000"/>
        <request index="2"  response="000011000000" foes="110011110000"/>
        <request index="3"  response="000010000000" foes="100010000000"/>
        <request index="4"  response="000110000111" foes="100110000111"/>
        <request index="5"  response="011110000110" foes="011110000110"/>
        <request index="6"  response="000000000000" foes="010000000100"/>
        <request index="7"  response="000000000000" foes="110000111100"/>
        <request index="8"  response="000000000011" foes="110000110011"/>
        <request index="9"  response="000000000010" foes="000000100010"/>
        <request index="10" response="000111000110" foes="000111100110"/>
        <request index="11" response="000110011110" foes="000110011110"/>
    </junction>
    <junction id="C2" type="traffic_light" x="200.00" y="200.00" incLanes="C3C2_0 D2C2_0 C1C2_0 B2C2_0" intLanes="" shape="196.80,207.20 203.20,207.20 203.64,204.98 204.20,204.20 204.98,203.64 205.98,203.31 207.20,203.20 207.20,196.80 204.98,196.36 204.20,195.80 203.64,195.02 203.31,194.02 203.20,192.80 196.80,192.80 196.36,195.02 195.80,195.80 195.02,196.36 194.02,196.69 192.80,196.80 192.80,203.20 195.02,203.64 195.80,204.20 196.36,204.98 196.69,205.98">
        <request index="0"  response="000000000000" foes="000100010000"/>
        <request index="1"  response="000000000000" foes="111100110000"/>
        <request index="2"  response="000011000000" foes="110011110000"/>
        <request index="3"  response="000010000000" foes="100010000000"/>
        <request index="4"  response="000110000111" foes="100110000111"/>
        <request index="5"  response="011110000110" foes="011110000110"/>
        <request index="6"  response="000000000000" foes="010000000100"/>
        <request index="7"  response="000000000000" foes="110000111100"/>
        <request index="8"  response="000000000011" foes="110000110011"/>
        <request index="9"  response="000000000010" foes="000000100010"/>
        <request index="10" response="000111000110" foes="000111100110"/>
        <request index="11" response="000110011110" foes="000110011110"/>
    </junction>
    <junction id="C3" type="traffic_light" x="200.00" y="300.00" incLanes="D3C3_0 C2C3_0 B3C3_0" intLanes="" shape="207.20,303.20 207.20,296.80 204.98,296.36 204.20,295.80 203.64,295.02 203.31,294.02 203.20,292.80 196.80,292.80 196.36,295.02 195.80,295.80 195.02,296.36 194.02,296.69 192.80,296.80 192.80,303.20">
        <request index="0" response="000000" foes="001000"/>
        <request index="1" response="110000" foes="111000"/>
        <request index="2" response="100000" foes="100000"/>
        <request index="3" response="100011" foes="100011"/>
        <request index="4" response="000000" foes="000010"/>
        <request index="5" response="000000" foes="001110"/>
    </junction>
    <junction id="D0" type="traffic_light" x="300.00" y="0.00" incLanes="D1D0_0 C0D0_0" intLanes="" shape="296.80,3.20 303.20,3.20 302.49,-0.36 301.60,-1.60 300.36,-2.49 298.76,-3.02 296.80,-3.20">
        <request index="0" response="00" foes="00"/>
        <request index="1" response="00" foes="00"/>
    </junction>
    <junction id="D1" type="traffic_light" x="300.00" y="100.00" incLanes="D2D1_0 D0D1_0 C1D1_0" intLanes="" shape="296.80,107.20 303.20,107.20 303.20,92.80 296.80,92.80 296.36,95.02 295.80,95.80 295.02,96.36 294.02,96.69 292.80,96.80 292.80,103.20 295.02,103.64 295.80,104.20 296.36,104.98 296.69,105.98">
        <request index="0" response="000000" foes="001000"/>
        <request index="1" response="000000" foes="111000"/>
        <request index="2" response="000000" foes="100000"/>
        <request index="3" response="000011" foes="100011"/>
        <request index="4" response="000010" foes="000010"/>
        <request index="5" response="001110" foes="001110"/>
    </junction>
    <junction id="D2" type="traffic_light" x="300.00" y="200.00" incLanes="D3D2_0 D1D2_0 C2D2_0" intLanes="" shape="296.80,207.20 303.20,207.20 303.20,192.80 296.80,192.80 296.36,195.02 295.80,195.80 295.02,196.36 294.02,196.69 292.80,196.80 292.80,203.20 295.02,203.64 295.80,204.20 296.36,204.98 296.69,205.98">
        <request index="0" response="000000" foes="001000"/>
        <request index="1" response="000000" foes="111000"/>
        <request index="2" response="000000" foes="100000"/>
        <request index="3" response="000011" foes="100011"/>
        <request index="4" response="000010" foes="000010"/>
        <request index="5" response="001110" foes="001110"/>
    </junction>
    <junction id="D3" type="traffic_light" x="300.00" y="300.00" incLanes="D2D3_0 C3D3_0" intLanes="" shape="303.20,296.80 296.80,296.80 296.80,303.20 300.36,302.49 301.60,301.60 302.49,300.36 303.02,298.76">
        <request index="0" response="00" foes="00"/>
        <request index="1" response="00" foes="00"/>
    </junction>

    <connection from="A0A1" to="A1B1" fromLane="0" toLane="0" tl="A1" linkIndex="4" dir="r" state="O"/>
    <connection from="A0A1" to="A1A2" fromLane="0" toLane="0" tl="A1" linkIndex="5" dir="s" state="O"/>
    <connection from="A0B0" to="B0C0" fromLane="0" toLane="0" tl="B0" linkIndex="4" dir="s" state="O"/>
    <connection from="A0B0" to="B0B1" fromLane="0" toLane="0" tl="B0" linkIndex="5" dir="l" state="o"/>
    <connection from="A1A0" to="A0B0" fromLane="0" toLane="0" tl="A0" linkIndex="0" dir="l" state="O"/>
    <connection from="A1A2" to="A2B2" fromLane="0" toLane="0" tl="A2" linkIndex="4" dir="r" state="O"/>
    <connection from="A1A2" to="A2A3" fromLane="0" toLane="0" tl="A2" linkIndex="5" dir="s" state="O"/>
    <connection from="A1B1" to="B1B0" fromLane="0" toLane="0" tl="B1" linkIndex="9" dir="r" state="o"/>
    <connection from="A1B1" to="B1C1" fromLane="0" toLane="0" tl="B1" linkIndex="10" dir="s" state="o"/>
    <connection from="A1B1" to="B1B2" fromLane="0" toLane="0" tl="B1" linkIndex="11" dir="l" state="o"/>
    <connection from="A2A1" to="A1A0" fromLane="0" toLane="0" tl="A1" linkIndex="0" dir="s" state="O"/>
    <connection from="A2A1" to="A1B1" fromLane="0" toLane="0" tl="A1" linkIndex="1" dir="l" state="o"/>
    <connection from="A2A3" to="A3B3" fromLane="0" toLane="0" tl="A3" linkIndex="1" dir="r" state="O"/>
    <connection from="A2B2" to="B2B1" fromLane="0" toLane="0" tl="B2" linkIndex="9" dir="r" state="o"/>
    <connection from="A2B2" to="B2C2" fromLane="0" toLane="0" tl="B2" linkIndex="10" dir="s" state="o"/>
    <connection from="A2B2" to="B2B3" fromLane="0" toLane="0" tl="B2" linkIndex="11" dir="l" state="o"/>
    <connection from="A3A2" to="A2A1" fromLane="0" toLane="0" tl="A2" linkIndex="0" dir="s" state="O"/>
    <connection from="A3A2" to="A2B2" fromLane="0" toLane="0" tl="A2" linkIndex="1" dir="l" state="o"/>
    <connection from="A3B3" to="B3B2" fromLane="0" toLane="0" tl="B3" linkIndex="4" dir="r" state="O"/>
    <connection from="A3B3" to="B3C3" fromLane="0" toLane="0" tl="B3" linkIndex="5" dir="s" state="O"/>
    <connection from="B0A0" to="A0A1" fromLane="0" toLane="0" tl="A0" linkIndex="1" dir="r" state="O"/>
    <connection from="B0B1" to="B1C1" fromLane="0" toLane="0" tl="B1" linkIndex="6" dir="r" state="O"/>
    <connection from="B0B1" to="B1B2" fromLane="0" toLane="0" tl="B1" linkIndex="7" dir="s" state="O"/>
    <connection from="B0B1" to="B1A1" fromLane="0" toLane="0" tl="B1" linkIndex="8" dir="l" state="o"/>
    <connection from="B0C0" to="C0D0" fromLane="0" toLane="0" tl="C0" linkIndex="4" dir="s" state="O"/>
    <connection from="B0C0" to="C0C1" fromLane="0" toLane="0" tl="C0" linkIndex="5" dir="l" state="o"/>
    <connection from="B1A1" to="A1A2" fromLane="0" toLane="0" tl="A1" linkIndex="2" dir="r" state="o"/>
    <connection from="B1A1" to="A1A0" fromLane="0" toLane="0" tl="A1" linkIndex="3" dir="l" state="o"/>
    <connection from="B1B0" to="B0A0" fromLane="0" toLane="0" tl="B0" linkIndex="0" dir="r" state="o"/>
    <connection from="B1B0" to="B0C0" fromLane="0" toLane="0" tl="B0" linkIndex="1" dir="l" state="o"/>
    <connection from="B1B2" to="B2C2" fromLane="0" toLane="0" tl="B2" linkIndex="6" dir="r" state="O"/>
    <connection from="B1B2" to="B2B3" fromLane="0" toLane="0" tl="B2" linkIndex="7" dir="s" state="O"/>
    <connection from="B1B2" to="B2A2" fromLane="0" toLane="0" tl="B2" linkIndex="8" dir="l" state="o"/>
    <connection from="B1C1" to="C1C0" fromLane="0" toLane="0" tl="C1" linkIndex="9" dir="r" state="o"/>
    <connection from="B1C1" to="C1D1" fromLane="0" toLane="0" tl="C1" linkIndex="10" dir="s" state="o"/>
    <connection from="B1C1" to="C1C2" fromLane="0" toLane="0" tl="C1" linkIndex="11" dir="l" state="o"/>
    <connection from="B2A2" to="A2A3" fromLane="0" toLane="0" tl="A2" linkIndex="2" dir="r" state="o"/>
    <connection from="B2A2" to="A2A1" fromLane="0" toLane="0" tl="A2" linkIndex="3" dir="l" state="o"/>
    <connection from="B2B1" to="B1A1" fromLane="0" toLane="0" tl="B1" linkIndex="0" dir="r" state="O"/>
    <connection from="B2B1" to="B1B0" fromLane="0" toLane="0" tl="B1" linkIndex="1" dir="s" state="O"/>