<?xml version="1.0" encoding="UTF-8"?>
<!-- generated on 2021-01-09 17:23:07.066831 by randomTrips.py v1_6_0+0003-190709904e
  options: -n gridtest.net.xml -e 50 -p 2.5 -o gridtest.trips.xml <doubleminus>intermediate 500
-->
<routes xmlns:xsi="http://www.w3.org/2001/XMLSchema-instance" xsi:noNamespaceSchemaLocation="http://sumo.dlr.de/xsd/routes_file.xsd">
    <trip id="0" depart="0.00" from="A1A0" to="B0C0" via="D2D3 A0A1 A3A2 D3C3 C2C1 B1B2 C3C2 B0C0 D3C3 A0B0 B2A2 C3D3 C0C1 A2A3 B0C0 B0B1 A0B0 B0B1 C2D2 D2D3 C3C2 C3C2 B3C3 C1D1 D1D2 A2B2 C1C2 C1C0 A3A2 A2A1 B0C0 B0C0 A2A1 D3D2 D0D1 B3A3 C2B2 C3C2 D1D2 C0D0 B1B2 B2B1 D2D3 D3C3 D0D1 C1D1 C0C1 A3B3 D2C2 C1D1 D3D2 D2D1 A0A1 B1A1 B3C3 D0D1 B1A1 C0B0 D0D1 B0A0 C0B0 C2D2 C3D3 B3C3 B3C3 A1A0 D0C0 C2D2 D2D3 A2B2 B0A0 A1A2 C2B2 C1B1 C0D0 B3C3 C1C0 C2C3 C1B1 D1D2 D1C1 B0A0 A1A0 A1A2 A0A1 A2A1 C3D3 D3C3 A2A3 A1B1 D1D0 C1B1 B1B2 A0A1 B0C0 A2A3 B0A0 D1D0 D3D2 A2A1 C2D2 D0C0 B3A3 A0B0 B0C0 C2C3 A3A2 B1B0 A2A1 D3C3 D2C2 D1D0 B1C1 A0A1 B1B2 A0B0 B2C2 C0B0 B1B2 C1C2 C2C3 B1C1 B3C3 C3C2 B3C3 D1D2 D2D1 C3C2 B1A1 A3B3 B1C1 D1D0 A3A2 B1A1 C1D1 B2B3 B1B2 A0A1 D3C3 D1C1 D1D2 C2C3 A1A0 A3A2 A2A1 A1A2 C3B3 A2B2 C1C2 A2A3 A1A0 B3A3 D2D3 C3C2 A2B2 A2A1 A2A3 B0A0 B2A2 D0D1 A1A2 B1B0 A0A1 B1A1 D0C0 D2C2 A1B1 B0A0 D1D0 B2C2 A0B0 A1B1 B1A1 B2C2 C1C2 A2A3 A2B2 B0B1 B1B2 A2B2 C3C2 C2B2 D1D0 D1D2 A2A3 D2D3 C3B3 D0D1 A1A2 D3C3 C1B1 B2B3 C2C3 A1B1 C2D2 B2B1 C1D1 C3C2 B3A3 B2B1 A3A2 A0A1 D2D1 A1A0 A2A3 B0A0 B2B1 D0C0 D0C0 B1B2 A2A1 C0D0 C3B3 B1C1 B3A3 D2D3 D2C2 D2C2 D1D2 C0B0 A3B3 A2A3 B0A0 C0B0 D2D3 C0D0 B0B1 A3B3 C0C1 C1C0 C2D2 D1D2 D1D0 D2C2 B3C3 D1D0 B2C2 D1C1 C0D0 C1D1 D2D3 B2B1 B2A2 D1C1 C3D3 D3C3 C0D0 C1D1 C3B3 C2D2 D2D3 B2B1 C3C2 D2D1 D3D2 B2B3 A3A2 B1C1 A2A1 B1A1 D0D1 C3D3 A1B1 C3D3 A2A1 A2A1 B0C0 C3C2 B2B1 A1A2 D1D0 C2D2 C3D3 B0A0 C2D2 A1A0 D2D3 D1D0 D3D2 A2B2 B1B2 C3B3 C1B1 D1C1 D1D0 A1A0 A1A2 A3B3 B0C0 B3C3 B3B2 A1A2 B3B2 C0D0 C2D2 D3C3 A3A2 A0A1 A2B2 C0B0 C3B3 C3C2 C2C1 A2A1 A2A1 B2B1 D3D2 C1C0 B1A1 B1A1 C1D1 C3C2 B1C1 C2B2 C0D0 B0C0 B0A0 A3A2 B2A2 C0B0 C2B2 A0A1 B2B1 C1C2 D2C2 D1D0 C0C1 C1B1 C3D3 C2D2 C3B3 B1C1 A2B2 D2D3 A3A2 D3D2 C2C3 D1D0 B1B2 A2A3 C0C1 C2C1 D0D1 D0D1 C1C2 B0B1 B0C0 B2C2 B3B2 A1B1 C1B1 D1D0 B0C0 B0C0 D1D2 B1C1 A0A1 D2D3 D1D2 B0B1 B1B2 B2A2 D2D3 A1A0 C2D2 C3D3 C0B0 C3C2 B1B0 B0C0 C3C2 A1A2 B2C2 C1C2 A1B1 A1A2 B2C2 B1C1 D1C1 C1C2 D2D1 D0D1 A2A1 C0B0 C3D3 D0D1 A3A2 A1B1 B1B2 C2B2 D1D2 A3A2 A1B1 A2A3 C3B3 C1B1 A1A0 A1A2 B1C1 B1A1 B1B0 B0C0 C1C2 D2D1 D3D2 A0B0 B2C2 A0A1 D3D2 D2C2 A2A3 B3B2 C0D0 D0D1 C2C3 C1C0 B2C2 B2C2 A0A1 C1C2 C0D0 D3D2 B2A2 B0C0 A0A1 A1A2 A0B0 D1D0 D3C3 D1C1 D0C0 A2B2 C1C2 A1A2 C2C3 D2D1 A3B3 A2A1 C1C2 B0B1 C1C2 A2A3 C1C0 B3A3 C1C2 B3A3 A0A1 C2B2 D2C2 A1A2 D1C1 B0A0 D2C2 A0B0 A0A1 B2B3 C2C1 D1D0 B0C0 B3A3 B2A2 A0B0 A1A2 C1C0 D2D3 C1B1 D1D2 C1C2 A3B3 C1C2 B2A2 C2B2 A1B1 D3D2 C1B1 B2B3 D0C0 C3C2 A1A0 C2D2 D1D0 C1C0 C2D2 C1C0 B2B3 B3C3 C1B1 D1D2 D0D1 A2A1 B0B1 B2B1 D2D3 B2C2 C3D3 D2D1 D0C0 A1A0 C0D0 A1A0" />
    <trip id="1" depart="2.50" from="C3D3" to="A1A0" via="C2B2 A1A2 B2C2 D1D0 D2D3 D0D1 A0A1 A2A1 D1D0 C1B1 D2D3 C1C0 B2B3 C3C2 B3C3 B2A2 B0B1 C1D1 A0B0 B0C0 A3B3 A0A1 C0C1 B2B1 C1C0 C1D1 B1A1 D3D2 A0A1 B1A1 B3A3 A0A1 C3D3 B3C3 B2C2 D2D1 C3B3 C3C2 C1C2 D1C1 B2B1 B1A1 A1B1 C1D1 C1C0 B3A3 A3B3 A1B1 C0D0 A1A2 A3B3 D2C2 C2D2 C2D2 C0D0 C1C2 B0B1 C0C1 A2B2 D2D3 C3C2 B2B1 B3A3 C2D2 D1D2 A3A2 C2B2 A3A2 B3A3 B3A3 D2D3 B1A1 C2C1 B1A1 B1B0 A0A1 D1D2 B0C0 A3A2 C0C1 C0C1 B3C3 D2D3 D1D2 A2A3 C3B3 C3C2 D3C3 D3C3 A1A0 A0A1 A3A2 C0D0 B3C3 C3B3 C1B1 B2B3 B0B1 D1D2 C2C1 C0D0 A2A1 D0C0 D0C0 B1C1 C1B1 B1B0 C2C1 C0C1 D3D2 A1A0 C2C1 C1D1 A1B1 D0C0 C0D0 C2C3 B3B2 C1C0 B2C2 C2B2 B3A3 D2C2 C3C2 B1B2 B0C0 B2C2 C3D3 D0C0 A0A1 B1B0 B1A1 C0C1 B3A3 A3B3 B0B1 C1C0 B1B0 A3A2 B0B1 D1D2 D3D2 C1D1 A1A2 D2D1 B0A0 A2A3 B1B2 D3D2 C2B2 C2C1 A3B3 B0B1 C0D0 A0A1 A2A1 C3D3 C3B3 B3A3 B2C2 C0D0 C1B1 C1C2 C1C2 C0C1 C2B2 A3A2 A1B1 B3B2 B1A1 C3B3 A2B2 A2A3 D1D2 D2C2 B0B1 B2C2 B0B1 C3C2 A3B3 D0C0 D3C3 D3D2 C1B1 D1C1 D2D3 B1B0 A1A0 B0B1 C1B1 A1A2 A1B1 B2A2 C1B1 C1C2 A2A3 B1B2 D0D1 B2A2 A3B3 B1A1 C1C2 B3C3 A2A1 C2B2 B2B1 B2C2 B3A3 C3C2 B3B2 D1C1 A2A1 C2D2 B3C3 B3A3 A0B0 B3C3 A0B0 B1B0 A0B0 A1A2 B2B3 A3B3 D1D0 C2C1 D0C0 A2A3 B2B1 A2A1 C0B0 A1A0 B0C0 A1A2 B3C3 A2A3 B3A3 A3B3 C1D1 C1C2 B1C1 D3C3 C3D3 D1C1 C2C1 A0A1 A2B2 B2B3 C0B0 B0C0 D2D3 C3B3 A3A2 A2A1 C3B3 C2B2 C1C2 D3C3 D2D1 B0A0 D1D2 B0A0 A2B2 D0C0 D1D0 C1B1 B2B1 B1B0 C2D2 A1B1 B0C0 B2B3 A3B3 A1A2 D0D1 A0A1 A1A0 B1B0 C2B2 C0B0 C2C1 B0A0 C1C2 B1A1 B3C3 C3C2 A0B0 D0C0 C0C1 D1C1 B2A2 B2B1 C0B0 B2A2 B3B2 B1C1 D2D3 A0B0 A3A2 D1D0 C3D3 A2A3 B2B1 B2B1 A2A3 D3C3 D2D1 A3A2 C1D1 D3C3 B1C1 B2B1 B1A1 D1D2 A1A0 B3A3 C1C0 A2B2 C2C1 C2B2 B0C0 C0B0 A2B2 D0D1 C0D0 C3D3 A1A0 B0A0 D0D1 B0C0 C3C2 C2C1 C1D1 D0D1 D1D0 A1B1 C3D3 B3B2 B3B2 D3D2 B0A0 C3C2 D0C0 D1C1 A3A2 A2A3 D3C3 A0B0 D1D2 D3C3 C1C2 D0D1 B3B2 A1A2 C0B0 C3B3 A2A3 A1A0 B3C3 A2B2 D1C1 B1B2 D2D1 C1C2 B2A2 A2B2 B3A3 B1C1 D1C1 B0B1 B1B0 D1D0 C3C2 B1A1 D0D1 D2C2 B2B1 B2C2 C1B1 B0B1 A3A2 A1A2 C0B0 A0A1 C2D2 D2D1 D0D1 C1B1 B2A2 D1D2 D0C0 B1C1 B1C1 B1C1 C3C2 D3C3 D3C3 A2A3 C1B1 C0D0 B1A1 D2C2 D0C0 B2A2 C2D2 C1B1 C0D0 B1B2 D1D2 D3D2 C2C1 A1A2 A1A0 D0D1 B3A3 C2B2 D1D0 D0D1 C3C2 A1A2 A3B3 D3D2 B2B3 D1C1 B0C0 D3C3 B3C3 B1A1 B2C2 A1B1 A1B1 B3B2 A2B2 B1C1 A3A2 A0A1 B1B0 D2C2 A1B1 C1C2 D3D2 B1B2 C2C1 D3C3 B2B1 B2C2 D0D1 A0B0 C2B2 D2D3 C0D0 A2B2 C3D3 C0B0 C1D1 B3B2 D2C2 A3A2 D1D2 B0A0 C0B0 D3C3 C0B0 B2C2 B2B1 D3C3 A1A0 D2C2 B1A1 B1B2 D2D3 C1C0 B0A0 B2C2 C3B3 D0D1 B0A0 C1C2 B2C2 D2D1 B1B0 D2C2 C0D0 D2D1 C0B0 D1D0 A1A2 A3B3 D2D1 A1B1 C1B1 B0B1 C2C1 D2D1 C2C3 D1D2 C1C0 B1B0 B0B1 B1A1 A0B0" />
    <trip id="2" depart="5.00" from="C2D2" to="B2B3" via="B0B1 C1C0 A0B0 B1B0 B1A1 A2B2 A2A1 C0C1 D0D1 C2C1 B2A2 C0D0 B2B1 D2D3 B1B2 C0C1 B1B0 D0D1 B2C2 D3D2 D0D1 A1A0 C0D0 B1A1 C2C1 B0B1 C1C0 A0A1 C0B0 C1C2 B2B3 A0B0 D1D2 A2A1 C3C2 B2B1 D0C0 A0A1 B3C3 A3A2 B1B0 C0B0 B1B2 B0B1 C2C1 C3B3 D2C2 A2B2 D1D0 A3A2 B3A3 B1B2 D2C2 C0D0 A1B1 C0C1 C1B1 A0A1 B3B2 B1C1 D1C1 B1B2 D0D1 A1A2 C2B2 D0D1 C0C1 A0A1 C2D2 D3C3 D0C0 B3B2 C1D1 D1C1 D2D3 B2B1 D2C2 B2C2 A1A2 C1B1 A1A2 B2B3 A0A1 B1B2 C2D2 A2A1 C2B2 A1A2 C1D1 C1C2 B1B0 B2A2 B3B2 B3C3 C3C2 D3C3 D2D3 C1C2 D0D1 D2D3 A2B2 A1B1 D3D2 B2B1 A3A2 B0C0 A2B2 A3B3 B1C1 A2B2 B3A3 A3B3 A3B3 C2B2 D2C2 D3C3 B3B2 A3A2 D1C1 A2A3 D0C0 B2B3 C2D2 A3B3 C3D3 B1A1 C3B3 C2C3 A0B0 D3C3 B2C2 A3A2 A2B2 A2A1 A3B3 C2B2 D3D2 D3D2 B3C3 D2D1 C0D0 A0B0 D0D1 D3D2 B2B1 C2C3 C3C2 B1A1 D2D1 B0C0 C1C0 B0B1 A1B1 C0C1 B2C2 C1C0 B3C3 B1A1 A3A2 B1B2 B1A1 A2A3 C0C1 B2B1 A1A0 D2C2 A3A2 B1B0 D1D0 B2A2 B2A2 B1B2 D2D3 B0A0 B3B2 A2A1 A3A2 D2D3 C2B2 C0C1 C3B3 B1B0 D1D2 D2C2 C2D2 D1D0 B1B0 B0C0 A3A2 C0D0 A1B1 C2D2 A3B3 C0C1 B1C1 C3D3 B1B0 D1C1 D2D3 C3D3 B1C1 D1C1 C3D3 D0D1 B2B3 A2A1 C1C0 C2C1 B3C3 D3D2 C0C1 D2C2 B1A1 A0A1 A1A2 A2A3 C2D2 B1A1 C0C1 C1D1 C3D3 B3B2 A2B2 D2D3 B1A1 B0A0 B1C1 D0C0 D2D1 A1B1 C2C1 B2B1 A2A3 C1C0 D2C2 B1C1 D1D2 C2C3 C2D2 B2B1 C3B3 C0D0 B0A0 C1B1 B1B2 C0B0 D1D0 B2B3 A1B1 A1B1 C0D0 C0D0 C2B2 A3B3 A0B0 B1B0 D1D0 A1A0 C3D3 A0B0 B1A1 C2D2 A1A2 A0A1 B2B3 B1C1 C2C1 C3C2 D0C0 B0C0 A3A2 A2B2 C0C1 C0B0 D0C0 B0C0 C0B0 D3D2 B1C1 D2C2 A2A1 A1A0 C2C3 C2D2 C3B3 D0C0 C2C3 B0A0 B2C2 D2C2 C0C1 C1C0 A3A2 A1B1 D2D3 D3D2 D3D2 C3C2 C1C0 B0B1 C3D3 D1D0 D2D1 A2A3 D1D0 C3C2 D2C2 D3D2 D1D2 B2C2 C2D2 C1B1 D2C2 B3C3 C3D3 C1C0 D1D0 C1B1 C2C3 A1A0 C2C1 B1C1 C0B0 C1B1 D1D0 D0C0 B2C2 A1B1 C0C1 C0B0 C0B0 C0C1 B3A3 C2C1 D1C1 A2A1 A1A0 A1A2 C2B2 C3D3 D3C3 C2C3 B0C0 A1A2 B1C1 B1B2 B0C0 B1B0 D3C3 B2A2 B3C3 A1A2 D0D1 B2B3 A1B1 C1D1 C3D3 C3C2 B3B2 A2A3 B1B2 C3D3 C2B2 A1A2 B3B2 A0A1 A2B2 B1C1 C2D2 A1A2 B3B2 A2A3 C2D2 B3A3 C3D3 C2D2 B1A1 B2C2 D1C1 B3C3 C3C2 B1A1 C3D3 B1B2 B0B1 D1D2 A2B2 A3B3 C2C3 D3D2 D2D3 D3C3 D1D2 D1C1 B3A3 A1A2 B3B2 C1B1 B2C2 D1D2 C0B0 D2C2 B3A3 C1C2 D2D3 A2A1 B1A1 B1A1 B3B2 C1D1 D3D2 A0B0 C2C1 C2B2 B0B1 C2C3 C3C2 C3B3 D2D1 C1C0 C2C3 D2D1 B0A0 A2A1 D2D1 C1C2 C1C2 D2D3 B2B1 D1D2 C0D0 C1D1 B1B2 D3C3 B2A2 B2A2 B2B1 C2C1 A2B2 C3C2 A3B3 A3A2 C1B1 D2D1 B2A2 D2C2 C3B3 B2B3 A2A1 B2B1 D3C3 B3B2 B0B1 B2A2 D1D2 D0D1 C3C2 C0B0 A0B0 C3B3 B1A1 C0C1 D3C3 B2A2 B3A3 B2B1 D0C0 A1A0 D0C0 B2B3 A1B1 B2C2 D0C0 D0C0 B0B1 C0B0 C1C2 A1B1 A2B2 C1B1 B2B1 B1B2 B1A1 D1D2 A1B1 D0C0 C1C2 B1B0 C1C2 A1A2 C1B1 D3C3 C1B1 B3A3 D0D1 B2C2 D1D2 B3C3 D2D1 A1B1" />
    <trip id="3" depart="7.50" from="A3B3" to="C2C3" via="B2C2 A3A2 A0A1 A1B1 A3B3 C3C2 A1B1 A2A1 B3C3 D1D2 A0B0 B2A2 D1C1 A3B3 B3A3 B3B2 A3B3 C3B3 D0C0 A1B1 B1B2 B2B1 A2A1 B2B3 D2C2 C1D1 B2A2 B1B0 C1C0 B1B2 C2C1 B2C2 C1B1 B3A3 A3A2 B2B3 A3B3 C0D0 A1A2 C0C1 C2D2 C3C2 C3C2 C2C1 D1D0 C3C2 A2A3 D2D1 C2C1 C1B1 A1B1 D0C0 C0D0 A1A0 C1C2 C0B0 D1D0 D3D2 B3B2 A2A1 A2B2 B3B2 B2C2 B3B2 D2C2 C2C3 C0D0 D2C2 D1D2 B2C2 C1B1 C3C2 A2A3 D2C2 B2A2 C3B3 A2A1 A3B3 C1C2 A1B1 C0D0 D3D2 D1D2 B1B2 C1C0 C2D2 B0B1 D0C0 C3B3 B3C3 D3C3 B2A2 B2C2 C2C3 C0D0 A2B2 A2A3 C1C2 B3A3 D2C2 A2A3 D1D2 A3B3 A3A2 A3A2 D3D2 C3C2 B1B2 B2A2 A2A3 C2C1 C0B0 D0D1 D3C3 C1C2 B0C0 B3B2 C2C1 C0D0 C1C0 B3A3 B1C1 D2D3 D1D2 B2A2 D0D1 D2C2 A0B0 B3B2 C0B0 B3C3 C3B3 D2C2 C1D1 C2B2 B1B2 D3D2 A2A3 A3A2 B1C1 D3C3 C3D3 D1D0 D1C1 C2D2 B2B3 D0D1 D0D1 B3C3 C3B3 A2A3 C3D3 A1B1 A0A1 D0C0 B1B0 B1C1 C3B3 C3B3 B2B1 D1D0 C3D3 A2B2 D2D3 D2D3 B3A3 D0C0 B1B0 C1B1 B2C2 B1A1 C3B3 D3C3 D0C0 D2D3 A2A1 B3C3 A1A2 B2B3 D3C3 C1D1 B0B1 D2D3 A1B1 C0B0 C1B1 D1D2 B1C1 D2C2 C3B3 B1B2 D0C0 C1B1 C1B1 C0B0 A0B0 B3A3 B1C1 B1B0 B3C3 C0B0 C3D3 C0D0 B0A0 B2B3 B1A1 B1A1 C0C1 D2D3 C1C2 C1C0 C0B0 B3C3 B1B2 D3C3 D1D2 C3C2 B1C1 C1C2 B3B2 B0C0 A1B1 C0D0 B0A0 B2C2 A2A1 B0B1 A2A3 B2B3 A2A1 D2D1 C0C1 D0C0 D0D1 D2D1 B0B1 D3D2 C1B1 D3C3 B3B2 C1C0 B2B1 B2B3 A3B3 D1C1 A1B1 B1B2 C3B3 B1A1 A2A1 B3A3 B1B2 C2B2 D2D1 D1C1 B3C3 C1D1 C3C2 C2B2 C1B1 B1C1 B0B1 A0A1 A0A1 D1C1 A1B1 C2C1 A0A1 B1B0 C2C3 D2C2 D2C2 A0B0 A0A1 A3A2 A1A2 B0A0 B1A1 C3B3 C0D0 C0C1 B3B2 C0D0 C1B1 C1C0 B3A3 B0C0 A2A1 B0A0 A1B1 A2A3 B1C1 B3A3 C3D3 C3C2 D1D2 C1D1 D2D3 A1B1 C3D3 C1B1 A3B3 C2D2 A0B0 C2B2 C3C2 B0B1 B1A1 A3A2 C1C2 C1C0 C0D0 D1C1 B1B2 A2A3 B1B2 B2A2 A0B0 A2A3 A2A3 B2B1 C0C1 A2B2 B2C2 A1B1 C1C0 D1D2 A0B0 A2B2 A1B1 C1D1 B0A0 B0C0 A0B0 C2C3 B2C2 D3D2 C3B3 C2C1 B1B2 D1C1 D0C0 D3C3 A1A2 D2D3 B0C0 D1D0 A1B1 D2D3 C3C2 C3C2 D0C0 B2A2 B1B0 B3B2 D0D1 D2C2 C1C0 B1B0 D3C3 B1C1 C3D3 C2B2 D3C3 C0B0 B2B1 B2B3 D2C2 B1B2 C0D0 C1D1 A2B2 B2B3 D2D1 C2C3 C3B3 C3B3 A2A3 B1A1 B2B3 C1D1 B0B1 A0B0 C2C1 B3B2 C2C3 C0D0 A2A3 C1D1 B1A1 A2A3 C0D0 C1C0 B3A3 B2C2 C3D3 B3C3 A2A3 C1C0 C0D0 C2B2 A3B3 C2D2 D2C2 B1A1 A0A1 C3D3 A2A3 C3B3 C1C2 B2A2 B1B2 B2B3 A2A1 D3D2 C2C3 A1B1 A3A2 C2C3 D0C0 B1B2 A0B0 A2A3 A1B1 D3D2 B2B3 D3D2 C0B0 C2B2 C0D0 B3A3 A1A2 C3D3 D3C3 A1A0 B0A0 B1A1 B3B2 C3C2 C3C2 B0B1 D2C2 D1D2 D2C2 A2A3 B1A1 D3D2 A2A1 B0B1 B1B0 C2C3 A2A3 A3B3 A2B2 C3B3 B3B2 B0B1 B2B3 B3B2 D2D3 B0B1 B1A1 C0B0 B1B2 C1B1 A2A1 A1A0 A1A2 B1B0 B1B0 B1B2 D2D3 A2B2 C2B2 C1B1 D1C1 C3C2 D1D0 B0A0 B1B2 A0B0 B2B3 C0B0 D1C1 A0A1 D0C0 C0C1 C2D2 C2D2 C2C1 C3D3 C0B0 A3B3 C0B0 A1A0 D2C2 D1C1 C3B3 B2A2 C3C2" />
    <trip id="4" depart="10.00" from="B1C1" to="B2B1" via="C0D0 D2D1 B1C1 C1C0 C3C2 A3B3 C3B3 A3A2 B3C3 D2D3 A1A2 B2B1 B2A2 A1A2 A3A2 C2C3 C1D1 D1D0 C2D2 A3B3 D3D2 D0C0 C0B0 B2C2 A0A1 C1B1 C0B0 C2B2 C0C1 C3B3 A2A3 D1D2 B3B2 C2C1 B0B1 C2C1 A1B1 D1C1 A3A2 D2C2 D0D1 B2A2 C2C3 C0D0 C1D1 C0B0 A2A1 A2A3 D2D1 A3A2 C2D2 C3B3 B2C2 C3B3 B0C0 A0B0 A2A1 B1B0 A3B3 C2D2 A1A2 A2A3 A1B1 A3B3 B2B3 D2D1 C0B0 C3D3 D0D1 A1B1 C0D0 A3B3 C1B1 A3B3 C3C2 C3D3 B0B1 D2D1 C1D1 A2B2 B2C2 A3B3 C3B3 D1C1 B1C1 A0A1 D1D2 B0B1 C0C1 D3D2 B0C0 C0C1 C2C3 B2C2 B1B2 D3C3 D1D0 B0B1 B1B2 C1C2 C0D0 A3A2 A2A1 B3B2 D3C3 C3B3 B0A0 B2A2 C0C1 D3D2 C0C1 C3B3 D1C1 A0A1 A3A2 B0C0 B1C1 A3A2 C0C1 D1D0 A1B1 A3A2 D2D1 C2C3 D2C2 B0A0 A3A2 C1B1 A2A3 D1D0 B1C1 D3C3 C1C2 C3D3 C3D3 C1C0 D0C0 A3A2 D3C3 D1D0 D2C2 D2D3 D1D0 A3A2 B0A0 B0A0 D0C0 D2D1 B2C2 B1B2 A0A1 B0A0 C3D3 D3D2 C3B3 C0D0 D3C3 B1A1 B0A0 B1B2 A3B3 D0C0 A0B0 B1A1 C1B1 D1C1 D1D0 D3C3 D3C3 A2A1 B2B3 C1B1 B1B2 D0D1 D2D3 B2A2 B0C0 A2B2 A3B3 C2B2 D3C3 A2A3 A1A0 C2C1 B2C2 C3B3 C3C2 B2B1 C0C1 A3B3 B1B0 B2B1 D3C3 D1D2 D2C2 C3B3 B2A2 C3B3 C2C1 C0D0 A1A2 C3B3 C2C1 D3D2 B1B2 C1C2 D1D0 C0C1 B3C3 C1C2 D3D2 C0C1 A0B0 A3B3 B2B1 B2B1 B2B3 A2A1 A1A0 A1A0 A1A2 C1B1 B3A3 A1B1 B2B1 D2D1 A3B3 C1C2 B1B2 C0D0 D2D1 A2A1 B1C1 B0A0 B0C0 D0C0 A1A0 C1C2 B1B0 D0C0 B1B0 B2B1 C2D2 C3C2 B0C0 B1B2 A0B0 C2D2 D1D2 A0B0 C2C1 B0C0 A0B0 D0C0 D3D2 B1A1 B2B1 A3A2 B2B1 C0B0 B1B0 B2C2 D1D2 C3B3 A1B1 C2C3 B0B1 C2B2 C3B3 A0B0 A1A2 A1A2 D2D3 B2A2 B0C0 B0A0 B0B1 C2C1 B1A1 C0D0 D3D2 A1A2 B0A0 B2A2 D0C0 B2B1 C0B0 C2D2 B1C1 B0C0 B1A1 A2A1 B3A3 B1A1 B0B1 C1B1 B1A1 D2D3 C3C2 C2B2 C1D1 D1C1 A1A0 B3C3 B1B2 D1D2 B2B1 A2A1 C1C2 D2D3 B1A1 A2A3 D3C3 B0A0 B1A1 A0A1 B0A0 C1B1 D2D1 B1A1 C0C1 C2B2 B3C3 C3C2 B2C2 C0D0 C2B2 C1C0 A0B0 B2A2 C1B1 C1D1 D3D2 C3B3 C3D3 A2A3 B1A1 D3C3 A2A3 A2A3 B3C3 B3A3 B3A3 C3B3 A0B0 B1C1 B0A0 B2B3 D2D1 D1C1 B1A1 A0B0 D1C1 A3B3 C1C2 C2C3 D2D3 D2D3 A2A3 B3B2 D1D2 B2C2 C2D2 B0B1 C1B1 A1A0 C1C2 C3B3 A1B1 C0C1 D2D3 A3B3 C0C1 B2B1 C2C1 C0D0 A3A2 D0D1 C2D2 B2C2 B3C3 A2B2 C2B2 B0C0 A2A3 D1D2 A1B1 C1B1 A1B1 D2D1 C1B1 A2A1 A3A2 A1A0 C2D2 D2D1 B2A2 C0D0 C3D3 D1D0 C1C2 B0A0 B3A3 C0D0 A2B2 B3C3 C0C1 A0B0 B1B2 B3C3 B2A2 C0D0 A0A1 C1C0 A3B3 C1C0 B0B1 B2C2 A1B1 B0A0 D1D2 C2C3 B1A1 B0A0 A3A2 B0C0 D2C2 B3A3 D3C3 C3C2 B2C2 A2A3 B1B2 B1B2 D3D2 B3C3 C1C2 C2B2 A2A3 D1C1 B2A2 A2A1 B3B2 A2A3 A3B3 D1D0 B2B1 A2A3 D0D1 B0C0 D1C1 C2C3 D0C0 B1B0 A0B0 C1C2 A3B3 C3B3 D2D3 D3C3 B1B2 C2D2 B1B2 C0C1 A0B0 B3A3 C2C1 D0D1 C1C2 B2B1 A3B3 B2C2 B1B0 D1C1 B2B3 D0C0 A1A0 C2D2 D2D1 D1D2 B1A1 C2C1 C0C1 D3D2 D2D3 C3C2 A0B0 A3A2 A0A1 C0C1 C2C3 C1C2 C1B1 D1C1 C3B3 A3B3 B3B2 C2D2 C0C1 C3C2" />
    <trip id="5" depart="12.50" from="B1B2" to="C0C1" via="A3A2 A1B1 B1B0 C0C1 B1B2 A2A1 C2C1 B2B1 D2C2 B1B2 B0A0 D2D1 C1D1 B0C0 D1D0 C1D1 C3B3 D1D2 C3C2 C1B1 C2C1 B1C1 C1C0 D2D3 C2C1 C0D0 C2C3 C0C1 B0B1 C1B1 B3C3 B1B0 C2C1 A2A1 B2B1 B1B0 A2B2 C1B1 C2D2 A3B3 D3C3 A0B0 B3C3 B3C3 A0B0 C3B3 C2C3 B1B0 B0A0 B3B2 C2B2 B1A1 B0A0 A3A2 A2B2 D0C0 A3A2 A2A3 C2C1 C3B3 A1B1 B3C3 D1C1 C3B3 B2B3 A1A2 D2C2 C2C3 B1C1 D1D0 D2D3 B3C3 C3B3 B3B2 C2C3 C2D2 B0A0 C2D2 C1B1 A3A2 C1C0 B0B1 D2C2 B0C0 C0B0 D1C1 A1A2 D2C2 A2A1 B1C1 C2B2 D0D1 A2A3 D1D0 C1D1 C2B2 B0B1 C3C2 D0D1 B0B1 B2B3 B1A1 C2B2 D1D2 D3C3 B2B3 C2C1 B1B2 D0C0 B0A0 C3C2 A3A2 A2B2 A1A0 B0B1 D2D3 C2C1 C2C1 C0B0 C3C2 A2A1 D3D2 C2B2 B0C0 B1A1 D1D2 A2A1 A3B3 D0C0 D1D0 C3C2 C0B0 A3A2 D0D1 C0C1 D1D2 D1C1 A3B3 A1A2 D3D2 D2D3 A3B3 C3D3 C1D1 C3B3 B0B1 D2C2 B0C0 A1A0 A3A2 C2C1 D2C2 C3B3 B1A1 B1C1 C1C0 B1C1 A1B1 B2A2 B3A3 A3A2 B2C2 B1A1 C3D3 B2A2 D1C1 C3D3 B1B2 B1C1 C2D2 C2B2 B1C1 C3C2 C2C3 A1A0 D0C0 C2C3 B3B2 D0C0 C3B3 B1C1 C0D0 A3A2 A2A3 A2A3 B3B2 D0C0 B2C2 C3D3 B1B0 A1A0 B0A0 D1D2 D2D3 C3D3 B3B2 A3A2 B2B1 B0B1 C0D0 D2D3 B1B0 B3A3 B2B3 A0B0 A2A3 B2A2 A1B1 B1A1 B1B0 A2B2 B0B1 A1A0 B0A0 C3C2 D0D1 A2A1 C2D2 B3A3 B1B2 C2C1 C2B2 B2A2 C2D2 C0D0 B2A2 A0A1 C0B0 A3B3 B1B0 B2B1 B1C1 B3A3 A2A1 C2D2 A2B2 B2C2 C2D2 D2D3 B0A0 C1B1 B3B2 C2C3 B2B3 C3D3 C3D3 B2B1 C3C2 D1C1 C0C1 A1A2 D0D1 A2A1 C3B3 B0A0 C1C0 A1B1 D2D3 B0B1 A0B0 A1A0 A2A1 B3C3 C2D2 C3B3 B1B0 C1C2 B0B1 B1B0 C2C3 C1C2 A1A0 B0A0 C0D0 C2C3 B2C2 D1C1 B3C3 A2A3 B3A3 B0C0 C3B3 B1B0 C0D0 C0B0 C0B0 C0B0 D2D1 B3A3 A2A3 B2C2 A1A0 D3C3 A1A0 C3D3 B0C0 D1D2 B0A0 C2B2 B3C3 C1C2 C3B3 B1C1 D1C1 C1C0 B3A3 B0C0 B0B1 A2A1 A0A1 B2B1 D3C3 B3B2 A1B1 C2B2 C3B3 D0C0 D0C0 D2D1 C0D0 B1B0 A3A2 A0A1 D2C2 C2B2 C3B3 D1C1 A1A0 B3A3 B0B1 C1C2 A2A3 C0B0 D0D1 A3A2 C2C3 A0B0 C1D1 C0B0 A2A1 C3D3 B2A2 C0B0 A2A3 B2B1 D2C2 D2D1 D1C1 C2B2 B2A2 C1D1 A0B0 A1A2 A1A0 B2C2 C3D3 C1C0 B2B3 B1C1 C3C2 D3C3 B3B2 C0C1 B0A0 B3B2 A3A2 D2D1 B2B1 D2C2 A1A0 D2D3 C0B0 D2D1 C3B3 C2B2 B0B1 A2A3 C3D3 B3C3 B2B1 D1D2 C1D1 C0D0 C3D3 D0C0 C2C3 D0D1 B3A3 D3C3 B3C3 B3B2 C0B0 A2A1 C2B2 C3B3 C1D1 D0C0 C2D2 C1D1 B2B1 C0B0 D2D3 C0B0 C1C2 D2C2 C3D3 B2A2 A1A2 A3B3 C3C2 C2C1 D0D1 A0A1 C0B0 D2C2 A2A3 C3B3 C2B2 D2C2 A1A0 C0C1 C1B1 C3C2 B2B1 A0A1 D1C1 A0A1 D1C1 C3B3 D2D3 A1A0 D3C3 C1C0 C1D1 A0A1 C2D2 A1A2 B1B0 D2D3 B1B2 A0B0 A2A3 A0B0 D3D2 C3D3 D1D0 B3B2 D3D2 D0C0 D1D0 B1B2 A2B2 C1D1 A1A2 C3B3 B0B1 D0D1 B0C0 A3B3 B3B2 B2C2 A1A2 D3C3 C2C1 A3A2 D0C0 B0C0 C2B2 D2D3 A2B2 A3A2 B2B3 B0A0 B1B0 C1B1 C3D3 C2C1 C0D0 B3B2 A1B1 D1D0 C1C0 C2C3 C2C1 C2C1 A3A2 D3D2 B2C2 D0D1 B1B0 A1A0 D2D3 B1B0 C2C1 D3C3 C1D1 C1C2 C0B0 C2B2 B1A1" />
    <trip id="6" depart="15.00" from="D1D2" to="B3A3" via="D1D0 D1D0 B0C0 D3C3 B2B1 A0A1 A3B3 C3B3 D2D1 D3C3 C0C1 B3B2 C1C0 D2C2 B2C2 B2A2 C2C3 A1A2 C3B3 C2C3 B2C2 B1A1 D0C0 B2A2 A2A3 B0A0 B3B2 B2C2 C0D0 B2B1 A2A1 A2A3 C1C0 B2B1 C2C3 B1B2 C1C2 B3A3 C1B1 A3B3 C2C1 D1D2 C2C1 B2A2 B2A2 A0A1 B0C0 B2C2 A2B2 B0C0 C1C0 D1D2 A3A2 C3B3 D3D2 D0D1 A2A3 B1C1 D1D0 B2A2 B0C0 A2B2 C1C0 A1B1 B3A3 C0D0 C3C2 A0B0 B2A2 A0A1 C0B0 C2B2 C2B2 B3A3 B2A2 C0B0 D0D1 D1C1 C2B2 B2B3 C0C1 C3D3 D0D1 B1B0 C2C3 D3D2 D1D0 C2D2 B0B1 A1B1 B2B1 B1B2 A1A0 C0D0 C1C2 A2A3 A1B1 B0C0 B2C2 C1B1 B1A1 C3C2 D2D3 D0D1 A1A0 B1B0 B1B0 D1C1 B3A3 D0D1 B2A2 C2C3 D2D3 C2B2 C3D3 C2D2 B3B2 B0B1 D2D1 A1A0 C2B2 C0C1 C3C2 A2B2 A0B0 C1C2 C3B3 D0D1 D2C2 D3C3 C0B0 D3D2 A3B3 D2D3 C3B3 D0D1 C3C2 C2C1 C0C1 B0C0 D1D2 B1C1 A2A3 B2B3 B1C1 A3A2 B2B3 D0C0 B2B1 A1B1 B1B0 C1B1 B2B1 A2A3 A0A1 B3B2 A1A2 A3A2 A3B3 D0D1 A3B3 D2D3 B3C3 C2C1 D1D0 C0C1 C0B0 C3C2 C1C2 D1D2 A2A1 B0A0 B2B1 C2D2 A3B3 A2B2 C1C0 A1B1 A1B1 A3B3 D1C1 B2B3 B3B2 C2C1 D3C3 D1C1 C3C2 A2A1 B0A0 C1D1 C2B2 D1D2 B2A2 D1D2 B3C3 B1A1 A1A2 C3B3 C1D1 D0D1 A3B3 A0B0 D2D3 A3A2 B1B0 B2B3 C2D2 A1A2 A1A2 B0C0 C2B2 B1A1 D3C3 B2C2 B2B3 C0D0 D2D3 D2D3 D2C2 C3B3 B3C3 C0D0 D0C0 D3D2 B2C2 C3C2 D3D2 C0C1 A1A0 C2B2 A0B0 B1B0 A2B2 A1A0 B0B1 A0B0 C1C2 B0C0 A1B1 C2C3 A3B3 C0B0 C0C1 B1B2 B0B1 B2B1 D1C1 B2B1 B2B1 C3D3 B3C3 C1D1 B2B1 C3B3 D0C0 C2C3 B1A1 C3D3 A3B3 C2B2 A2A1 C3B3 D1C1 C0B0 B3B2 D2C2 B1B2 B1C1 D1D0 B0B1 D2D3 C3D3 A0B0 C3D3 C2C1 C1B1 B2A2 B1B0 D3D2 B3A3 D2C2 B2A2 B2B1 A3A2 C0C1 C2D2 B1B2 D0C0 B0B1 B2A2 B3C3 C0B0 B1A1 A3B3 B2B1 B3A3 A3A2 A2A3 C1C0 B2B3 A1A0 B2C2 C1B1 A1B1 B2B3 C2D2 B0B1 D0C0 C0D0 B2C2 C3D3 C2B2 C1B1 D2D1 A1A0 B3C3 D1D0 C3D3 A3B3 A1A2 A1B1 B1B2 D3D2 C1B1 C2D2 D0D1 B3B2 D1D2 B3B2 A2A3 A0B0 A1B1 D0D1 B3A3 C1C2 C1B1 A1A2 A1A0 C3B3 D1D2 D0D1 C1D1 B0A0 D3D2 B1C1 D2D1 C2B2 D0D1 A0B0 D1D0 C1C0 A0B0 C1B1 C3B3 C1D1 C1B1 C3C2 B1A1 B0A0 D3C3 A0B0 A1B1 B2B1 C1C0 D3D2 D3C3 B2C2 D1D0 B0C0 D3C3 C3D3 C2C1 C3C2 C0C1 C2C1 A2B2 B2C2 C3C2 D3D2 A1A2 D2C2 D0C0 D3D2 C0C1 D0C0 C2B2 C0C1 A1A2 B3B2 D2C2 D0D1 C2D2 A0A1 A1A2 A3B3 C1B1 D3C3 D2D1 A2A1 A2A3 C2B2 B2A2 B1B0 C3D3 D1D0 C2D2 A3A2 C0D0 C1B1 A1A0 A1A0 A3B3 D1D2 D1D2 C2C3 A2B2 C1B1 D2C2 A0A1 A0A1 B1C1 D2C2 D3C3 B0B1 B1B2 D1D0 D0C0 A0A1 C0C1 D0C0 B1B2 C1C0 B2C2 B1B2 C3D3 D2D3 A1A0 C1B1 B1B0 B2B3 C2C1 D0C0 C1D1 B1B0 D0C0 C1C0 B1B0 A3A2 C1C0 C1D1 A0B0 A3B3 D0D1 D2D1 D1D2 C3C2 A1A0 A0A1 D0D1 D0C0 B2C2 D2D3 D0C0 B2A2 C1C2 D3D2 A2A3 C0B0 C1C2 C0D0 B0C0 D2D3 C3D3 D1C1 A3B3 C1D1 A1A0 D2D1 A1B1 C3D3 D2D3 D3C3 A3B3 C1D1 A3A2 D0C0 C2D2 B2B3 C1B1 A2A3 C3C2 B2B1 C0C1 A3A2 A3A2 D3C3 B1B0 A3B3 A1B1 B1B2" />
    <trip id="7" depart="17.50" from="C1C0" to="D2D3" via="A2A1 C1C0 B0A0 B2B1 D3C3 D2D1 B0B1 B3A3 D1D0 C0C1 A2A3 C0B0 A1B1 C2B2 C2D2 A2A3 B1A1 A1B1 D2C2 A2A3 A1B1 A2A1 A2A3 B0B1 D3C3 D3C3 A2A3 C0C1 B2A2 A2A3 D3C3 C1C2 B3B2 B3A3 B0A0 B3B2 A2B2 A2A3 A2A3 C1C2 D2D1 A1B1 A3A2 B2B1 A1B1 B3B2 A2B2 A2A1 C1C0 C2C3 B2B3 B1C1 C3D3 A1A0 B2B1 C2D2 C3C2 B1B0 C0B0 C0C1 B3A3 C1B1 D3D2 C0D0 C2D2 C2C1 B0B1 C0C1 A1A0 B1B0 C3D3 C0D0 C3B3 C1B1 B1A1 A3A2 B3C3 D0C0 C0C1 C0C1 D1C1 D2C2 A1B1 D1C1 C1C0 C2C3 B1B2 B2C2 D2D1 C1C2 B1B2 B0C0 A3A2 C1D1 C2B2 B2C2 C3C2 D3D2 A3A2 D1D2 D3C3 D1D0 C3C2 B2B1 A2B2 A3B3 D0D1 C3B3 D1D0 D2D1 D3D2 D3D2 C2B2 A2A1 A3A2 C1B1 B1C1 A3B3 C2B2 B0C0 D2C2 A2A3 D1C1 A1B1 B1A1 A3A2 B1C1 A0A1 D0C0 A1A0 B1A1 C1B1 B2B3 C1B1 D1D0 D2C2 D3D2 A1A2 C2C3 D1D0 D2D3 C0D0 C0C1 C2C1 A1B1 C1B1 D3D2 C2D2 C1B1 D2D1 B0A0 C3B3 B3B2 A3B3 B1B0 A0B0 B3B2 C2C1 B2B3 B0C0 B0A0 B3B2 B1B2 D1D0 A2A1 D0C0 B2C2 C2C1 C3C2 D1D2 B1C1 C0D0 B0C0 D1D0 B0C0 B1B2 C3D3 B3A3 A3A2 B0B1 B2B3 B3B2 D1C1 C0C1 C1B1 D3C3 A3A2 C0B0 C2C3 D2D1 C0B0 C0D0 A1A0 C0C1 D3D2 B0B1 B2A2 C3D3 C2C1 A2B2 A0B0 C1D1 B1B0 A3B3 A2A1 C0B0 C2C1 D2D3 D3D2 C3C2 C0C1 B3A3 B1C1 B3C3 A0B0 A3B3 B0B1 C2C1 B3B2 D3D2 A1A0 A1B1 B1B0 A1A2 B2B1 A2A1 C1D1 C1B1 D2D1 A1A2 A0A1 B3A3 C1C0 C2C3 B3A3 C2C1 B3C3 C3C2 D1C1 C0B0 A1B1 D0D1 C0C1 C1B1 D0C0 B2B3 A2A1 D1C1 A1A0 D2D1 A3A2 C3C2 D2C2 C3B3 B0B1 D1C1 A2B2 C0D0 C2B2 D0D1 A3B3 D2C2 A3A2 C2D2 A0B0 D2D3 D3D2 B2B3 D2D1 A2A3 A3A2 B2B1 B0C0 C2B2 C2D2 C2D2 D2D3 A2A1 D2D3 C3B3 B2A2 D1C1 C1D1 B2A2 B1B2 A1B1 A1A2 A1A2 B0B1 D2C2 D2D3 B3B2 C3D3 C1D1 D2C2 A2B2 B1B0 C2C3 C1C0 B3C3 D0D1 C3D3 B3B2 D3C3 B2B1 B0C0 C0D0 D2D1 C1B1 B1B0 D3D2 A1B1 A2A1 C2C3 A2A3 D2D3 B2A2 C2C1 B0A0 C1D1 B1A1 B1B0 B2B1 D1D0 C2C3 B0B1 B0C0 C0C1 B2B3 D1D2 A3A2 A1A0 C1D1 B3A3 A0B0 C0C1 A2B2 D2D1 B2C2 B0A0 B3A3 C3B3 A1A0 D1D2 C1D1 C1C0 C1C0 D3D2 C2B2 D2D3 D1D0 D2C2 C0D0 D0C0 A2A1 C1B1 A3B3 A1A0 D3D2 D0C0 B1C1 B3B2 C3B3 D2D1 A1A2 B3B2 C3C2 B0B1 A3A2 B0C0 A1A2 C1B1 A1B1 C1C2 A2A1 A3B3 A1A2 C3C2 A3A2 D2D3 C2C3 D0C0 D3C3 A3B3 C0C1 B2A2 C3C2 B1A1 D0D1 C2B2 A2A1 B1B0 A1A2 B1B0 B1B2 A0A1 C0C1 C1B1 C3D3 A2A3 B3A3 D1D0 D3D2 C1D1 C2D2 A2A3 A2A1 D1C1 B2B3 D1C1 B2C2 B1A1 B3A3 C2C3 B2C2 B1B0 B0C0 A1B1 B2B3 B1B0 A2A1 C3C2 C1C2 B1A1 D2D1 D1C1 C3D3 B2C2 B2C2 A1B1 B1B2 A1A2 B3A3 C2C3 A2A3 D3C3 C3B3 A0B0 B1B0 D3D2 B2B3 A2B2 B3A3 A1A2 B3A3 D2D3 B1B2 B3B2 C1C0 B3B2 B1A1 A3A2 D0C0 B0B1 C2D2 C3C2 C2C3 C3C2 D0C0 B1A1 C0C1 C3B3 D1D0 C0B0 C2C3 B2C2 C0C1 D1D0 B0C0 B1C1 D2C2 C0C1 D0C0 B0C0 C0B0 A1B1 A2A1 A2A3 A2A3 C0C1 D2D1 D0C0 A1A0 D0C0 A0A1 C1C0 B0C0 C2C3 B0A0 B0A0 D2D3 C0B0 B2A2 C3B3 D3C3 D1D0 A1A0 B2B3 B0B1 B0C0" />
    <trip id="8" depart="20.00" from="C2D2" to="B2B1" via="B1B2 B3B2 D3C3 D2C2 C1C2 B0C0 C2D2 B3C3 C1B1 B3B2 B1B0 D2D1 B0C0 C0B0 B1B2 C0D0 D2D1 A0A1 B0B1 B3A3 B3A3 D3D2 C1C0 B2B1 C3D3 C0D0 C0C1 B3C3 C0C1 B2A2 D3D2 B2B1 C0D0 B2A2 C1C2 C3D3 B1B0 C3C2 A2A1 D3C3 B2B3 B3A3 B2B1 D0D1 A1A2 B0C0 D1D0 A3B3 D1C1 B3B2 C1D1 C2C1 D1D0 B0A0 D0C0 A1A0 B1C1 B3C3 B3B2 C3C2 C2D2 B0B1 A0B0 B1C1 C3B3 A2B2 A1A0 A2B2 D0C0 A2B2 D0D1 C2B2 C2C3 D2D3 A2B2 D2D1 A2B2 D0D1 D1C1 B0C0 A3A2 D0C0 C3D3 D1D2 C0D0 B2B3 D1D0 C2C3 D2D3 C2B2 C0C1 C2C1 A1B1 A2A3 C3D3 C0D0 C0C1 D1D0 D0D1 C0C1 B3A3 D0D1 C1C0 C0D0 D0C0 A2A1 D2D3 C2B2 B2A2 B0B1 A0B0 A1B1 A1A0 D3C3 B1C1 B2B1 A1A2 B0B1 A2A3 D3C3 B2B3 C3C2 C2B2 B0B1 B3C3 B0C0 B2B1 B1B2 C3D3 D1D0 B2A2 C1C0 A2A3 B0A0 A2A1 D2D3 D2D1 D3D2 B0C0 C3C2 C1C0 B2B1 D1C1 D2C2 B2C2 A3A2 C2C3 A0B0 B0A0 D1C1 D2C2 B2A2 C2C1 C3D3 D2C2 D1C1 C2C1 B0B1 A3B3 C2D2 B0A0 D2C2 D3D2 B0B1 B2A2 C2C3 C0C1 B1A1 D3C3 B3A3 D2D3 D2D3 B0C0 D2D3 A1B1 C1C2 B0B1 D2D1 B2A2 C0B0 A0B0 A0A1 D3D2 C2D2 B2B3 D3C3 A3B3 A2A3 B2B1 B0A0 C0C1 B2B3 B2A2 B3A3 C2C1 A1B1 A1A0 B3C3 B0B1 A1B1 B3C3 C1D1 C2C3 A0A1 C3B3 B2B3 C1D1 C2C3 C0D0 C2B2 A1A2 C2C3 C2C3 A1A2 D3C3 D0C0 C0C1 B3A3 C2C3 A2B2 A1A0 B2B3 C1B1 B2B3 D1D0 B2C2 C1D1 A0B0 B2B1 A1B1 C2C1 B3C3 A1A2 C1C2 D1C1 B2B3 C3C2 B2B3 C1B1 C2C3 A1A0 D1C1 B1C1 B2C2 C1C0 B0C0 C3B3 A2A3 D2C2 B2B3 B1A1 D2C2 D1C1 C1D1 D1D0 D1D0 C3C2 C1D1 D2D3 B1B2 C0D0 A2A1 B1B0 C1B1 B1C1 B3A3 D3D2 B2B3 D1D0 A3A2 C3B3 C2B2 A3B3 C2B2 C1C0 C1B1 D1D0 D0D1 A3A2 C1B1 B2B3 D3D2 D3D2 A3B3 D1D2 A1A0 C2B2 A0A1 C1C2 B3C3 C1C0 D2D3 D3C3 C3B3 A2A3 D2D3 D3D2 C2C3 D3C3 A3A2 D1C1 C1B1 A0B0 C2C1 A3B3 A1A2 C3C2 B1B2 A3A2 C2C1 C3C2 D1C1 C2C1 B1B0 A2A3 A0A1 C1B1 A1A2 B2C2 A3B3 C1B1 B0B1 B2B1 D2D1 D3D2 A1A0 C3C2 A2A1 A1B1 B2A2 B1A1 B2C2 A0B0 C1C0 A1A0 D1C1 C1B1 A3B3 C2D2 D1D2 C3C2 C0B0 C1C2 C1B1 A0B0 B2B1 D0D1 B0B1 D1C1 C2D2 D1D0 B0A0 D2C2 C0B0 C0D0 C0B0 C2D2 A1B1 B1B0 D2C2 A1A0 C1C0 D0D1 B3A3 C2D2 A2B2 B1B2 C2C3 B2C2 C0C1 B0B1 D1D0 D1C1 B0C0 D2C2 C1C0 B0B1 A3A2 C2B2 C3B3 C2B2 C1D1 A2B2 A3B3 D2C2 A2A1 B3A3 B2C2 C2D2 D1D2 D2C2 C1B1 C2C1 D1C1 C1C0 C1B1 B3C3 C3B3 B3B2 B2A2 B3A3 C3C2 D1D0 B2B3 A2A3 C1D1 D3D2 B3A3 C3B3 D0D1 A3B3 B0B1 D0C0 C3D3 A1B1 A2A3 D1D2 C3B3 C0C1 A0A1 A1A0 D2D1 D2D3 A2B2 B3B2 A1B1 C1C2 B1B2 C2B2 C1B1 C0B0 B2C2 A0A1 C3D3 A1B1 D1C1 B2B3 C2B2 B3C3 B2C2 A1B1 A0B0 D1D2 B0C0 B3A3 D1D0 C2B2 B1B2 D1C1 A2A1 D0C0 D0C0 C2D2 B1C1 C3C2 D1D0 A1A2 B1B2 D1D2 A0A1 C1B1 D0D1 B1C1 B3A3 D0C0 A0B0 A1A2 C0B0 B2B3 A2B2 B2C2 D2D1 B2B3 D2D1 C0B0 D0D1 C0D0 B1B0 B1A1 D0C0 D0D1 B1C1 D3D2 B2B1 D0D1 B2C2 C0C1 B3B2 C2B2 C1C2 C2D2 C2C3 A1B1 B2B3 D2D3 A1A2 C2B2 C2D2 D3C3 A0B0" />
    <trip id="9" depart="22.50" from="B1C1" to="C3D3" via="C0B0 C0B0 A2A1 D3C3 D0C0 C2B2 B1C1 B3C3 B1A1 A0A1 C3B3 B1B0 B2A2 C1D1 C1C0 D3D2 A3B3 C3C2 A1A0 B2B1 C1B1 B1B0 C3B3 D2D1 C3C2 D2D3 C0B0 C3D3 B3A3 D1D2 D1D2 B3C3 C1B1 B0A0 C3C2 B3A3 C0D0 A1A2 C0C1 B1A1 B1B2 B2B1 B0B1 A2B2 A3A2 B2B3 A2A1 B2A2 A1B1 C0C1 B2B3 C2D2 C2C1 B3B2 A3B3 C2D2 A0A1 D2D1 C3B3 D2D3 A3B3 D1D2 B3A3 C2D2 D3D2 C3C2 A1A2 C1C2 A1B1 D3C3 B1C1 C2C3 C3C2 D1C1 D1D0 C2D2 D0C0 A1A2 C2D2 B0B1 C1C2 C3B3 B3A3 D2D1 C0B0 B1B0 A1A0 A0A1 D0D1 A3B3 D0C0 C1C0 B2A2 C1C2 B1B0 C2B2 B1B0 A2A1 A2A1 A0B0 A1B1 A3A2 D2C2 D0D1 B1B0 C2D2 D3D2 A3B3 B2A2 A1A2 D1D0 B2B3 D3C3 A1B1 B1C1 A0B0 A1B1 D1D2 B3C3 A3B3 A3B3 D0C0 A2A3 D0C0 C0C1 C3D3 C1B1 A2B2 C1C2 C1C0 A0A1 B1B0 B1B2 B0A0 B0C0 D0C0 A2B2 D1C1 C0C1 D2C2 D1C1 D3D2 B1A1 C1D1 C0D0 A0A1 D3C3 A2B2 D1C1 B2C2 C1C0 D0D1 B1B0 C3C2 B1A1 C3B3 A2A1 A3B3 C2D2 C0C1 A2B2 D2D1 A3B3 B1C1 C2C3 D1D2 B3C3 C1B1 A2A3 B3C3 D2D1 C1D1 C3B3 D3D2 C1D1 C2C3 C2B2 C0D0 B1B2 B2B1 B2B3 D1D2 B1C1 C1B1 D2C2 B2B3 B3C3 A1A2 D1C1 B2B1 B0A0 C0D0 D0D1 A0A1 D3C3 B0C0 B1B2 B1A1 C2C1 B0C0 B1A1 C1C0 A3B3 A1A2 B0C0 A3B3 D3D2 D1D2 A0B0 B2B3 B1B2 C2C1 D3C3 C3C2 B2A2 D0D1 D0C0 C3C2 C3C2 B0A0 A2A1 D2C2 B0B1 C2C1 D1D0 D1C1 A1B1 A1A2 B0C0 A0A1 D2C2 A1B1 D1D0 A3B3 A2A3 B3B2 A1A2 B2C2 A0B0 B2C2 B2C2 B0B1 C1C0 B2B1 B3A3 C0D0 A2A3 D1C1 A3B3 A0B0 A1B1 A3B3 C0D0 D1D0 D3D2 C1C0 C3C2 A3A2 A2A3 A1B1 C0D0 C3D3 C0D0 B3C3 D2D1 B2C2 D1D2 A0B0 A2B2 A2A1 C0D0 A1B1 A3B3 A0B0 D1D2 B0C0 A0A1 C0B0 C2D2 D0C0 B0B1 A2A3 C3D3 A0A1 B3A3 B0B1 C2C3 B0B1 B1B2 C1B1 B0A0 A1A0 C2C3 B1B0 B3B2 B2C2 B1B0 D1C1 C0C1 B1A1 A0B0 D1D2 D3C3 B3B2 D3C3 C0B0 B0A0 B2B3 A3A2 B3C3 B1C1 D0D1 C3D3 C0C1 C1D1 B1A1 A2A1 D2D1 B1A1 A0A1 B0B1 B2A2 B0A0 C3C2 A2A3 C3D3 D1D0 A1B1 C3D3 B2B1 B2B1 C2C1 B1B0 B2C2 D0D1 A1B1 C2C1 C1B1 D3C3 A3B3 B0C0 A2A3 B0C0 C2C1 B2B3 B0C0 B2B1 B1B0 A2A1 B3A3 C0B0 A2A3 B3C3 D0D1 C3D3 D1D0 B2B1 B1A1 C3D3 A2B2 B2A2 B0B1 A1A0 D1C1 A1A2 B0A0 D2D1 B1B0 B0A0 B0A0 D1D2 C0C1 A2B2 B1B2 D3D2 A0A1 B0B1 D0C0 C1B1 D2C2 A2B2 C2C3 B3A3 B1C1 A2A1 C0D0 C0B0 A2A1 A3A2 B3C3 D2D3 B3B2 D1C1 C1C2 D2C2 C2D2 C1C0 A0A1 A2A1 A1A0 C1B1 D2D3 C0B0 A3B3 C0C1 D0D1 C1B1 A1A0 D2D1 B0A0 B1A1 D1D0 D1D2 C2B2 D2C2 D2D1 C2C1 C3D3 C2B2 C3B3 C3D3 B0C0 B2B3 B1C1 D3D2 B3B2 C2B2 A2B2 B1A1 C1C2 B0B1 C3B3 A3A2 A2B2 C1D1 C2C1 B1A1 C1C2 C3D3 D3C3 B0C0 B0C0 B2B3 C2C1 A3B3 C1C2 D0D1 B2B1 C0C1 D2D3 A3B3 C1C2 C2D2 D1C1 C3B3 B1A1 D1D2 D0D1 C0D0 B1B0 A1A2 B0C0 D0D1 A0A1 A3B3 B3C3 D3C3 C1B1 A3A2 A0B0 A1A0 A1A2 C2D2 B1A1 A3A2 A1A0 B1B0 A2A3 C2C3 B3C3 A1A0 D2C2 B3A3 B3A3 C0D0 D3D2 C1C0 C1C0 D0C0 C1C2 B0B1 A0A1 B1B0 C2C3 D2D1 D3C3 A2A1 D2D1 A3A2 A0A1" />
    <trip id="10" depart="25.00" from="D3C3" to="D1C1" via="A2B2 C0C1 D1D2 C0D0 B1B0 B2C2 C0B0 A2A3 B2B1 B1A1 B0B1 C2B2 B1B2 C1C0 A0A1 D3C3 A0A1 B3A3 B0A0 A2B2 D2D1 A0A1 C1C0 C1D1 C1C2 D1C1 C0B0 D2C2 B3B2 D1D2 B2B3 C1C0 B1A1 A1A2 A2A3 C2D2 A0A1 B0C0 B0B1 D0C0 C2C3 A2A3 C0C1 C0B0 C2D2 C1C2 B2B3 C3D3 B3A3 D1D0 C1C0 C1C2 C0C1 C3D3 B0C0 D1C1 A0A1 D2C2 C1B1 B3A3 D3C3 B1B2 A3A2 A2A1 C3C2 C1B1 D3C3 B2B1 B0B1 A0A1 D3C3 C0B0 A1A2 B2B3 D3C3 B3C3 D0D1 D0D1 B0A0 B1A1 B2B3 D2D1 D2C2 C1C0 B0C0 A0B0 D2C2 D3C3 A2A1 D3C3 C0B0 A0A1 B0C0 A1B1 C3C2 A3B3 B3C3 C3B3 B2C2 A0B0 A2A3 A0A1 C1C2 A3A2 B3A3 A3B3 B1A1 A0A1 A2B2 A3A2 A2A3 A2A3 B1B0 D3D2 C1C2 A2B2 B1A1 C1C2 C1C2 B0B1 B0B1 D2C2 B1A1 B1C1 B3B2 C1C0 A2A3 C2D2 D1C1 B0C0 B3A3 B0B1 B1C1 A2A1 A0A1 D3C3 A0B0 D2D1 A1B1 D3D2 C2B2 C3D3 A0B0 C2C1 C2D2 B3A3 A0B0 B3A3 C0D0 A1B1 D1D0 B0C0 C1C2 A1B1 B2B3 A0B0 C0C1 A3B3 C2D2 B2C2 C3C2 A1A2 B3B2 D0C0 B2B3 B0A0 B1B2 A2A3 C3B3 B2B3 D3C3 C1C0 A3B3 B0A0 B2C2 C1C2 C1C0 C3C2 D2D3 A1B1 C0B0 A1A2 C2B2 B2C2 B1B2 A2B2 D1D0 A2A3 D0D1 A3A2 C2C3 C1B1 D1C1 B2C2 D1C1 B1A1 D0C0 D2D3 B2B1 A2A3 B1A1 A1A2 A3B3 C1B1 C2C1 A0B0 B3C3 A2A3 C3C2 D1D0 C2D2 A3A2 D3D2 A2A3 B3B2 B3A3 C1D1 D1D2 B2B3 A1B1 D3C3 B1B2 A1A0 D1C1 B1C1 B1B2 D1D0 C0C1 B3B2 C0B0 B2A2 C3D3 B3B2 C1C0 B3C3 D0D1 B2C2 D2C2 B3B2 B2B3 B2B1 C3B3 C2D2 A2A3 C0D0 C2C3 A3A2 A2B2 B0A0 D3D2 D2D1 C0B0 B0C0 B2A2 B2B3 C3D3 A0B0 C3C2 C2D2 A1A2 D1D0 B1A1 B0B1 C1B1 C2C1 C2C3 C1D1 B3C3 A1A0 D1C1 D1D2 C0D0 B2A2 A1A2 C1C0 D2C2 C1D1 B0C0 C0B0 C2B2 A2A1 C2B2 D1D0 D2D3 D2C2 A0A1 C2C1 C3C2 C2C1 A1B1 D0C0 A2A3 C2D2 C2D2 B0A0 D1D0 D0C0 A0A1 C0B0 A1B1 C3D3 B1A1 C3D3 B1A1 A2A1 B1B0 C1D1 D0C0 B3C3 A1B1 B3C3 B1A1 A2A1 A0A1 B3B2 D3D2 A2A1 A0B0 D2C2 B3A3 C3C2 A2A1 C2D2 A2A3 C0D0 C2D2 C3D3 D1D0 C1D1 A1A2 C3B3 C2C1 A1A0 A2A1 A1B1 B3A3 C0B0 A0A1 A2A3 B2B1 C2C1 D2D1 B1A1 D1D0 C2C1 A2B2 B0A0 D0D1 B0B1 C1C0 D3C3 A1A0 D1C1 C1C0 B0C0 A2A1 B1B2 C3D3 A3A2 B0C0 D3D2 A0B0 D2D1 C2D2 B2B3 C1B1 B0A0 D2C2 A0A1 C2B2 D3D2 C0D0 C1C2 C1D1 B0B1 B3A3 C3B3 B1C1 A1B1 B3A3 B1B0 A0A1 D0C0 D3C3 B1C1 B1B2 B3B2 D1D0 C0D0 B0B1 C2C1 B1B2 A2B2 B2C2 B2A2 C2D2 C0B0 D1C1 A2A1 D1D2 B2B3 C2C1 D2D1 B1B0 B1C1 C1C0 D1D2 D2C2 A1A2 D2D3 B0A0 B2C2 A2A3 D1D2 A1A0 A2B2 B2C2 C1D1 C2C1 B3C3 B3B2 C1C0 C3C2 B1C1 D2C2 C2C3 A2A1 B3C3 B0B1 A1B1 D2C2 B1B0 A2B2 B3B2 B2B1 B2B1 C3C2 D1D2 C2C3 A2A1 B3B2 C2C3 B2C2 C3B3 A3B3 A3B3 A2A3 C1B1 B2B3 A2B2 D2D1 C1B1 A0B0 C1B1 B0A0 B3B2 B2B3 C1C2 C1D1 D3C3 C2B2 D0C0 B2B1 C2B2 B3B2 D2D1 C3D3 C0C1 B0B1 A2B2 C2C3 A3B3 C2C1 B1A1 B1B0 B1C1 B0B1 C3D3 A2B2 D2D3 A0B0 D1D0 B0A0 D1D0 C1C0 D1C1 C2C3 B3B2 C1B1 D2C2 B0A0 C1B1 C1C0 B1B0 C2C1 A3B3 C1D1 D3D2 C3C2 D3C3" />