<?xml version="1.0" encoding="UTF-8"?>

<!-- generated on 03/05/21 11:22:16 by SUMO duarouter Version 0.30.0
<?xml version="1.0" encoding="UTF-8"?>

<configuration xmlns:xsi="http://www.w3.org/2001/XMLSchema-instance" xsi:noNamespaceSchemaLocation="http://sumo.dlr.de/xsd/duarouterConfiguration.xsd">

    <input>
        <net-file value="benke.net.xml"/>
        <flow-files value="benke.flow.xml"/>
    </input>

    <output>
        <output-file value="benke.rou.xml"/>
    </output>

</configuration>
-->

<routes xmlns:xsi="http://www.w3.org/2001/XMLSchema-instance" xsi:noNamespaceSchemaLocation="http://sumo.dlr.de/xsd/routes_file.xsd">
    <vehicle id="0.0" depart="0.00" departLane="0" departSpeed="5.00" color="yellow">
        <route edges="D1"/>
    </vehicle>
    <vehicle id="0.1" depart="2.77" departLane="0" departSpeed="5.00" color="yellow">
        <route edges="D1"/>
    </vehicle>
    <vehicle id="0.2" depart="5.54" departLane="0" departSpeed="5.00" color="yellow">
        <route edges="D1"/>
    </vehicle>
    <vehicle id="0.3" depart="8.31" departLane="0" departSpeed="5.00" color="yellow">
        <route edges="D1"/>
    </vehicle>
    <vehicle id="0.4" depart="11.08" departLane="0" departSpeed="5.00" color="yellow">
        <route edges="D1"/>
    </vehicle>
    <vehicle id="0.5" depart="13.85" departLane="0" departSpeed="5.00" color="yellow">
        <route edges="D1"/>
    </vehicle>
    <vehicle id="0.6" depart="16.61" departLane="0" departSpeed="5.00" color="yellow">
        <route edges="D1"/>
    </vehicle>
    <vehicle id="0.7" depart="19.38" departLane="0" departSpeed="5.00" color="yellow">
        <route edges="D1"/>
    </vehicle>
    <vehicle id="0.8" depart="22.15" departLane="0" departSpeed="5.00" color="yellow">
        <route edges="D1"/>
    </vehicle>
    <vehicle id="0.9" depart="24.92" departLane="0" departSpeed="5.00" color="yellow">
        <route edges="D1"/>
    </vehicle>
</routes>
